auto3d
     RDKit          3D

 17 16  0  0  0  0  0  0  0  0999 V2000
   -0.2357   -0.4357    1.9460 F   0  0  0  0  0  0  0  0  0  0  0  0
   -0.3479   -2.3420    0.8829 F   0  0  0  0  0  0  0  0  0  0  0  0
   -2.3790   -1.2249    0.0206 F   0  0  0  0  0  0  0  0  0  0  0  0
   -0.9221   -0.5609   -1.4605 F   0  0  0  0  0  0  0  0  0  0  0  0
    2.0955   -1.4469    1.2211 F   0  0  0  0  0  0  0  0  0  0  0  0
    1.5054   -1.5876   -0.8716 F   0  0  0  0  0  0  0  0  0  0  0  0
   -0.6841    1.8325    0.1319 F   0  0  0  0  0  0  0  0  0  0  0  0
   -2.5476    1.3921   -0.8771 F   0  0  0  0  0  0  0  0  0  0  0  0
   -2.3779    1.0945    1.2558 F   0  0  0  0  0  0  0  0  0  0  0  0
    1.6309    0.9703   -1.1876 O   0  0  0  0  0  0  0  0  0  0  0  0
    2.3213    1.2130    0.9443 O   0  0  0  0  0  0  0  0  0  0  0  0
   -0.1363   -1.0255    0.7380 C   0  0  0  0  0  0  0  0  0  0  0  0
   -1.2867   -0.4659   -0.1714 C   0  0  0  0  0  0  0  0  0  0  0  0
    1.3461   -0.8793    0.2604 C   0  0  0  0  0  0  0  0  0  0  0  0
   -1.7333    1.0042    0.1000 C   0  0  0  0  0  0  0  0  0  0  0  0
    1.8344    0.5722    0.0673 C   0  0  0  0  0  0  0  0  0  0  0  0
    1.9170    1.8898   -1.2588 H   0  0  0  0  0  0  0  0  0  0  0  0
  1 12  1  0
  2 12  1  0
  3 13  1  0
  4 13  1  0
  5 14  1  0
  6 14  1  0
  7 15  1  0
  8 15  1  0
  9 15  1  0
 10 16  1  0
 10 17  1  0
 11 16  2  0
 12 13  1  0
 12 14  1  0
 13 15  1  0
 14 16  1  0
M  END
$$$$
auto3d
     RDKit          3D

 17 16  0  0  0  0  0  0  0  0999 V2000
   -0.4348   -1.5033   -2.0289 F   0  0  0  0  0  0  0  0  0  0  0  0
   -0.0289    0.6319   -1.8833 F   0  0  0  0  0  0  0  0  0  0  0  0
   -2.4863   -0.1127   -1.1669 F   0  0  0  0  0  0  0  0  0  0  0  0
   -1.7113   -1.5281    0.3075 F   0  0  0  0  0  0  0  0  0  0  0  0
    1.0097   -2.0217    0.1618 F   0  0  0  0  0  0  0  0  0  0  0  0
    2.0519   -1.0438   -1.4938 F   0  0  0  0  0  0  0  0  0  0  0  0
   -0.5911    0.5251    1.7019 F   0  0  0  0  0  0  0  0  0  0  0  0
   -1.3044    1.9529    0.2341 F   0  0  0  0  0  0  0  0  0  0  0  0
   -2.7138    0.7535    1.3526 F   0  0  0  0  0  0  0  0  0  0  0  0
    1.7006    1.4016    0.0628 O   0  0  0  0  0  0  0  0  0  0  0  0
    2.4733   -0.2152    1.4260 O   0  0  0  0  0  0  0  0  0  0  0  0
   -0.1844   -0.4967   -1.1709 C   0  0  0  0  0  0  0  0  0  0  0  0
   -1.4772   -0.3592   -0.3108 C   0  0  0  0  0  0  0  0  0  0  0  0
    1.1696   -0.8576   -0.4810 C   0  0  0  0  0  0  0  0  0  0  0  0
   -1.5213    0.7551    0.7673 C   0  0  0  0  0  0  0  0  0  0  0  0
    1.8494    0.1447    0.4802 C   0  0  0  0  0  0  0  0  0  0  0  0
    2.1988    1.9734    0.6612 H   0  0  0  0  0  0  0  0  0  0  0  0
  1 12  1  0
  2 12  1  0
  3 13  1  0
  4 13  1  0
  5 14  1  0
  6 14  1  0
  7 15  1  0
  8 15  1  0
  9 15  1  0
 10 16  1  0
 10 17  1  0
 11 16  2  0
 12 13  1  0
 12 14  1  0
 13 15  1  0
 14 16  1  0
M  END
$$$$
auto3d
     RDKit          3D

 17 16  0  0  0  0  0  0  0  0999 V2000
   -0.0384   -1.2948    1.3250 F   0  0  0  0  0  0  0  0  0  0  0  0
   -0.2234   -2.4505   -0.5122 F   0  0  0  0  0  0  0  0  0  0  0  0
   -1.5623   -0.5010   -1.7315 F   0  0  0  0  0  0  0  0  0  0  0  0
   -2.4290   -1.1909    0.1528 F   0  0  0  0  0  0  0  0  0  0  0  0
    2.1871   -1.5816   -0.1787 F   0  0  0  0  0  0  0  0  0  0  0  0
    1.1980   -0.6530   -1.8942 F   0  0  0  0  0  0  0  0  0  0  0  0
   -2.8161    1.4167   -0.2992 F   0  0  0  0  0  0  0  0  0  0  0  0
   -1.5010    1.0979    1.3875 F   0  0  0  0  0  0  0  0  0  0  0  0
   -0.6923    1.7714   -0.5083 F   0  0  0  0  0  0  0  0  0  0  0  0
    1.5445    0.9060    1.2128 O   0  0  0  0  0  0  0  0  0  0  0  0
    2.4394    1.4082   -0.7913 O   0  0  0  0  0  0  0  0  0  0  0  0
   -0.1013   -1.2059   -0.0143 C   0  0  0  0  0  0  0  0  0  0  0  0
   -1.4266   -0.4793   -0.3956 C   0  0  0  0  0  0  0  0  0  0  0  0
    1.2606   -0.6663   -0.5563 C   0  0  0  0  0  0  0  0  0  0  0  0
   -1.6131    0.9892    0.0677 C   0  0  0  0  0  0  0  0  0  0  0  0
    1.8084    0.6977   -0.0768 C   0  0  0  0  0  0  0  0  0  0  0  0
    1.9656    1.7362    1.4711 H   0  0  0  0  0  0  0  0  0  0  0  0
  1 12  1  0
  2 12  1  0
  3 13  1  0
  4 13  1  0
  5 14  1  0
  6 14  1  0
  7 15  1  0
  8 15  1  0
  9 15  1  0
 10 16  1  0
 10 17  1  0
 11 16  2  0
 12 13  1  0
 12 14  1  0
 13 15  1  0
 14 16  1  0
M  END
$$$$
auto3d
     RDKit          3D

 17 16  0  0  0  0  0  0  0  0999 V2000
   -0.4539   -0.0397    1.8592 F   0  0  0  0  0  0  0  0  0  0  0  0
   -0.0619   -2.1025    1.2737 F   0  0  0  0  0  0  0  0  0  0  0  0
   -1.1523   -1.8019   -1.0870 F   0  0  0  0  0  0  0  0  0  0  0  0
   -2.4534   -1.1613    0.5468 F   0  0  0  0  0  0  0  0  0  0  0  0
    2.1489   -0.8477    1.2210 F   0  0  0  0  0  0  0  0  0  0  0  0
    1.4885   -1.1698   -0.8376 F   0  0  0  0  0  0  0  0  0  0  0  0
   -0.6207    0.8308   -1.6755 F   0  0  0  0  0  0  0  0  0  0  0  0
   -2.7084    0.2621   -1.7471 F   0  0  0  0  0  0  0  0  0  0  0  0
   -1.9781    1.4543   -0.0988 F   0  0  0  0  0  0  0  0  0  0  0  0
    2.5435    1.1685   -0.8221 O   0  0  0  0  0  0  0  0  0  0  0  0
    0.9333    1.9252    0.5600 O   0  0  0  0  0  0  0  0  0  0  0  0
   -0.1549   -0.8370    0.8230 C   0  0  0  0  0  0  0  0  0  0  0  0
   -1.3595   -0.8421   -0.1694 C   0  0  0  0  0  0  0  0  0  0  0  0
    1.2558   -0.4596    0.2804 C   0  0  0  0  0  0  0  0  0  0  0  0
   -1.6776    0.4692   -0.9328 C   0  0  0  0  0  0  0  0  0  0  0  0
    1.5261    1.0405    0.0265 C   0  0  0  0  0  0  0  0  0  0  0  0
    2.7245    2.1107   -0.9318 H   0  0  0  0  0  0  0  0  0  0  0  0
  1 12  1  0
  2 12  1  0
  3 13  1  0
  4 13  1  0
  5 14  1  0
  6 14  1  0
  7 15  1  0
  8 15  1  0
  9 15  1  0
 10 16  1  0
 10 17  1  0
 11 16  2  0
 12 13  1  0
 12 14  1  0
 13 15  1  0
 14 16  1  0
M  END
$$$$
auto3d
     RDKit          3D

 17 16  0  0  0  0  0  0  0  0999 V2000
   -0.2469   -1.2397   -1.5682 F   0  0  0  0  0  0  0  0  0  0  0  0
   -0.1419   -2.5011    0.2065 F   0  0  0  0  0  0  0  0  0  0  0  0
   -2.4833   -1.2601   -0.1705 F   0  0  0  0  0  0  0  0  0  0  0  0
   -1.4437   -0.7912    1.6927 F   0  0  0  0  0  0  0  0  0  0  0  0
    1.2644   -0.4843    1.5088 F   0  0  0  0  0  0  0  0  0  0  0  0
    2.1724   -1.5243   -0.1858 F   0  0  0  0  0  0  0  0  0  0  0  0
   -1.7903    1.1875   -1.1756 F   0  0  0  0  0  0  0  0  0  0  0  0
   -2.8171    1.2803    0.7239 F   0  0  0  0  0  0  0  0  0  0  0  0
   -0.6827    1.6329    0.6388 F   0  0  0  0  0  0  0  0  0  0  0  0
    2.5591    1.3191    0.2217 O   0  0  0  0  0  0  0  0  0  0  0  0
    1.1996    1.0765   -1.5582 O   0  0  0  0  0  0  0  0  0  0  0  0
   -0.1464   -1.2275   -0.2308 C   0  0  0  0  0  0  0  0  0  0  0  0
   -1.4430   -0.5937    0.3634 C   0  0  0  0  0  0  0  0  0  0  0  0
    1.2306   -0.6197    0.1712 C   0  0  0  0  0  0  0  0  0  0  0  0
   -1.6906    0.9169    0.1179 C   0  0  0  0  0  0  0  0  0  0  0  0
    1.6319    0.7073   -0.5115 C   0  0  0  0  0  0  0  0  0  0  0  0
    2.8278    2.1210   -0.2445 H   0  0  0  0  0  0  0  0  0  0  0  0
  1 12  1  0
  2 12  1  0
  3 13  1  0
  4 13  1  0
  5 14  1  0
  6 14  1  0
  7 15  1  0
  8 15  1  0
  9 15  1  0
 10 16  1  0
 10 17  1  0
 11 16  2  0
 12 13  1  0
 12 14  1  0
 13 15  1  0
 14 16  1  0
M  END
$$$$
auto3d
     RDKit          3D

 17 16  0  0  0  0  0  0  0  0999 V2000
   -0.6408   -1.4523    1.4336 F   0  0  0  0  0  0  0  0  0  0  0  0
    0.9123   -2.0805    0.0316 F   0  0  0  0  0  0  0  0  0  0  0  0
    0.0945    1.1155    1.2146 F   0  0  0  0  0  0  0  0  0  0  0  0
    1.6574   -0.2696    1.8648 F   0  0  0  0  0  0  0  0  0  0  0  0
   -0.2386   -0.6520   -1.9465 F   0  0  0  0  0  0  0  0  0  0  0  0
   -1.5669   -2.0689   -0.9575 F   0  0  0  0  0  0  0  0  0  0  0  0
    2.6969    1.6446    0.4560 F   0  0  0  0  0  0  0  0  0  0  0  0
    2.7091   -0.1499   -0.7538 F   0  0  0  0  0  0  0  0  0  0  0  0
    1.2903    1.4325   -1.1662 F   0  0  0  0  0  0  0  0  0  0  0  0
   -1.6475    1.3416   -1.1596 O   0  0  0  0  0  0  0  0  0  0  0  0
   -2.9570    0.0112    0.1001 O   0  0  0  0  0  0  0  0  0  0  0  0
    0.0777   -1.0804    0.3585 C   0  0  0  0  0  0  0  0  0  0  0  0
    0.9340    0.1397    0.8097 C   0  0  0  0  0  0  0  0  0  0  0  0
   -0.9252   -0.8971   -0.8161 C   0  0  0  0  0  0  0  0  0  0  0  0
    1.9300    0.7777   -0.2041 C   0  0  0  0  0  0  0  0  0  0  0  0
   -1.9830    0.2021   -0.5575 C   0  0  0  0  0  0  0  0  0  0  0  0
   -2.3433    1.9860   -0.9766 H   0  0  0  0  0  0  0  0  0  0  0  0
  1 12  1  0
  2 12  1  0
  3 13  1  0
  4 13  1  0
  5 14  1  0
  6 14  1  0
  7 15  1  0
  8 15  1  0
  9 15  1  0
 10 16  1  0
 10 17  1  0
 11 16  2  0
 12 13  1  0
 12 14  1  0
 13 15  1  0
 14 16  1  0
M  END
$$$$
auto3d
     RDKit          3D

 17 16  0  0  0  0  0  0  0  0999 V2000
   -0.2985   -0.7752   -2.0694 F   0  0  0  0  0  0  0  0  0  0  0  0
    1.0384   -1.8851   -0.7455 F   0  0  0  0  0  0  0  0  0  0  0  0
    1.9731    0.4618   -1.6452 F   0  0  0  0  0  0  0  0  0  0  0  0
    0.2529    1.5297   -0.8179 F   0  0  0  0  0  0  0  0  0  0  0  0
   -0.4926   -1.2604    1.3884 F   0  0  0  0  0  0  0  0  0  0  0  0
   -1.5629   -2.2143   -0.2533 F   0  0  0  0  0  0  0  0  0  0  0  0
    2.6710    1.7151    0.5131 F   0  0  0  0  0  0  0  0  0  0  0  0
    2.5676   -0.3947    0.9845 F   0  0  0  0  0  0  0  0  0  0  0  0
    1.0251    0.9546    1.6826 F   0  0  0  0  0  0  0  0  0  0  0  0
   -1.8647    0.8920    1.1387 O   0  0  0  0  0  0  0  0  0  0  0  0
   -2.8757    0.1181   -0.7189 O   0  0  0  0  0  0  0  0  0  0  0  0
    0.2152   -0.8272   -0.8269 C   0  0  0  0  0  0  0  0  0  0  0  0
    1.0662    0.4656   -0.6544 C   0  0  0  0  0  0  0  0  0  0  0  0
   -0.9728   -1.0752    0.1457 C   0  0  0  0  0  0  0  0  0  0  0  0
    1.8474    0.6805    0.6764 C   0  0  0  0  0  0  0  0  0  0  0  0
   -2.0339    0.0506    0.1205 C   0  0  0  0  0  0  0  0  0  0  0  0
   -2.5557    1.5644    1.0817 H   0  0  0  0  0  0  0  0  0  0  0  0
  1 12  1  0
  2 12  1  0
  3 13  1  0
  4 13  1  0
  5 14  1  0
  6 14  1  0
  7 15  1  0
  8 15  1  0
  9 15  1  0
 10 16  1  0
 10 17  1  0
 11 16  2  0
 12 13  1  0
 12 14  1  0
 13 15  1  0
 14 16  1  0
M  END
$$$$
auto3d
     RDKit          3D

 17 16  0  0  0  0  0  0  0  0999 V2000
   -1.0550   -0.2782    2.0528 F   0  0  0  0  0  0  0  0  0  0  0  0
    0.2551   -1.8451    1.2776 F   0  0  0  0  0  0  0  0  0  0  0  0
   -2.0063   -1.6659   -0.0348 F   0  0  0  0  0  0  0  0  0  0  0  0
   -0.2685   -1.1367   -1.2527 F   0  0  0  0  0  0  0  0  0  0  0  0
    1.5556    0.2209    2.2784 F   0  0  0  0  0  0  0  0  0  0  0  0
    0.5232    1.6283    0.9734 F   0  0  0  0  0  0  0  0  0  0  0  0
   -2.6496    0.1666   -1.7562 F   0  0  0  0  0  0  0  0  0  0  0  0
   -0.9901    1.4498   -1.2518 F   0  0  0  0  0  0  0  0  0  0  0  0
   -2.5577    1.0923    0.1980 F   0  0  0  0  0  0  0  0  0  0  0  0
    1.8834    0.8633   -1.0648 O   0  0  0  0  0  0  0  0  0  0  0  0
    2.8674   -0.7778    0.1225 O   0  0  0  0  0  0  0  0  0  0  0  0
   -0.2326   -0.6128    1.0453 C   0  0  0  0  0  0  0  0  0  0  0  0
   -1.0790   -0.7200   -0.2578 C   0  0  0  0  0  0  0  0  0  0  0  0
    0.9760    0.3658    1.0752 C   0  0  0  0  0  0  0  0  0  0  0  0
   -1.8330    0.5424   -0.7726 C   0  0  0  0  0  0  0  0  0  0  0  0
    2.0377    0.0658   -0.0096 C   0  0  0  0  0  0  0  0  0  0  0  0
    2.5730    0.6412   -1.7037 H   0  0  0  0  0  0  0  0  0  0  0  0
  1 12  1  0
  2 12  1  0
  3 13  1  0
  4 13  1  0
  5 14  1  0
  6 14  1  0
  7 15  1  0
  8 15  1  0
  9 15  1  0
 10 16  1  0
 10 17  1  0
 11 16  2  0
 12 13  1  0
 12 14  1  0
 13 15  1  0
 14 16  1  0
M  END
$$$$
auto3d
     RDKit          3D

 17 16  0  0  0  0  0  0  0  0999 V2000
    0.5461   -1.1013   -1.5611 F   0  0  0  0  0  0  0  0  0  0  0  0
   -0.1748   -1.7472    0.4063 F   0  0  0  0  0  0  0  0  0  0  0  0
   -1.3378    0.7063   -1.7975 F   0  0  0  0  0  0  0  0  0  0  0  0
   -2.1234   -1.2628   -1.2698 F   0  0  0  0  0  0  0  0  0  0  0  0
    0.9277    1.4685   -0.4312 F   0  0  0  0  0  0  0  0  0  0  0  0
    0.5054    0.5663    1.5161 F   0  0  0  0  0  0  0  0  0  0  0  0
   -2.3849   -0.3262    1.3851 F   0  0  0  0  0  0  0  0  0  0  0  0
   -3.5719    0.6081   -0.1646 F   0  0  0  0  0  0  0  0  0  0  0  0
   -1.8619    1.6468    0.6512 F   0  0  0  0  0  0  0  0  0  0  0  0
    3.2180    0.7733    0.5981 O   0  0  0  0  0  0  0  0  0  0  0  0
    2.6630   -1.3847    0.2727 O   0  0  0  0  0  0  0  0  0  0  0  0
   -0.0307   -0.6946   -0.4132 C   0  0  0  0  0  0  0  0  0  0  0  0
   -1.4551   -0.1904   -0.8048 C   0  0  0  0  0  0  0  0  0  0  0  0
    0.9325    0.3150    0.2596 C   0  0  0  0  0  0  0  0  0  0  0  0
   -2.3361    0.4516    0.3047 C   0  0  0  0  0  0  0  0  0  0  0  0
    2.3778   -0.2315    0.3622 C   0  0  0  0  0  0  0  0  0  0  0  0
    4.1058    0.4027    0.6863 H   0  0  0  0  0  0  0  0  0  0  0  0
  1 12  1  0
  2 12  1  0
  3 13  1  0
  4 13  1  0
  5 14  1  0
  6 14  1  0
  7 15  1  0
  8 15  1  0
  9 15  1  0
 10 16  1  0
 10 17  1  0
 11 16  2  0
 12 13  1  0
 12 14  1  0
 13 15  1  0
 14 16  1  0
M  END
$$$$
auto3d
     RDKit          3D

 17 16  0  0  0  0  0  0  0  0999 V2000
   -0.1609   -1.6068   -1.0696 F   0  0  0  0  0  0  0  0  0  0  0  0
    0.4981   -1.4344    1.0144 F   0  0  0  0  0  0  0  0  0  0  0  0
   -1.3922    0.2833    1.6029 F   0  0  0  0  0  0  0  0  0  0  0  0
   -2.1607   -1.5068    0.6138 F   0  0  0  0  0  0  0  0  0  0  0  0
    0.9144    1.3236    0.5159 F   0  0  0  0  0  0  0  0  0  0  0  0
    0.5498    0.8950   -1.5978 F   0  0  0  0  0  0  0  0  0  0  0  0
   -3.5746    0.5793   -0.0738 F   0  0  0  0  0  0  0  0  0  0  0  0
   -2.3427    0.0146   -1.7610 F   0  0  0  0  0  0  0  0  0  0  0  0
   -1.8400    1.7636   -0.5808 F   0  0  0  0  0  0  0  0  0  0  0  0
    3.2318    0.8718   -0.5975 O   0  0  0  0  0  0  0  0  0  0  0  0
    2.6737   -1.3038   -0.7584 O   0  0  0  0  0  0  0  0  0  0  0  0
   -0.0427   -0.7713   -0.0262 C   0  0  0  0  0  0  0  0  0  0  0  0
   -1.4787   -0.3608    0.4277 C   0  0  0  0  0  0  0  0  0  0  0  0
    0.9399    0.3593   -0.4208 C   0  0  0  0  0  0  0  0  0  0  0  0
   -2.3255    0.5246   -0.5305 C   0  0  0  0  0  0  0  0  0  0  0  0
    2.3882   -0.1576   -0.6042 C   0  0  0  0  0  0  0  0  0  0  0  0
    4.1221    0.5263   -0.7429 H   0  0  0  0  0  0  0  0  0  0  0  0
  1 12  1  0
  2 12  1  0
  3 13  1  0
  4 13  1  0
  5 14  1  0
  6 14  1  0
  7 15  1  0
  8 15  1  0
  9 15  1  0
 10 16  1  0
 10 17  1  0
 11 16  2  0
 12 13  1  0
 12 14  1  0
 13 15  1  0
 14 16  1  0
M  END
$$$$
auto3d
     RDKit          3D

 17 16  0  0  0  0  0  0  0  0999 V2000
   -1.0755   -0.6232   -1.8813 F   0  0  0  0  0  0  0  0  0  0  0  0
    0.5037    0.8797   -1.8956 F   0  0  0  0  0  0  0  0  0  0  0  0
   -1.6785    1.7969   -0.8104 F   0  0  0  0  0  0  0  0  0  0  0  0
   -0.0650    1.5779    0.6513 F   0  0  0  0  0  0  0  0  0  0  0  0
    1.4761   -1.5275   -1.6221 F   0  0  0  0  0  0  0  0  0  0  0  0
    0.1169   -2.0149    0.0127 F   0  0  0  0  0  0  0  0  0  0  0  0
   -1.2999   -0.5422    1.7619 F   0  0  0  0  0  0  0  0  0  0  0  0
   -2.6127    1.1618    1.5593 F   0  0  0  0  0  0  0  0  0  0  0  0
   -2.8380   -0.5337    0.2358 F   0  0  0  0  0  0  0  0  0  0  0  0
    2.6579    0.4030   -0.1155 O   0  0  0  0  0  0  0  0  0  0  0  0
    1.9361   -0.8927    1.5778 O   0  0  0  0  0  0  0  0  0  0  0  0
   -0.1866    0.0300   -1.1144 C   0  0  0  0  0  0  0  0  0  0  0  0
   -0.9687    0.9083   -0.0962 C   0  0  0  0  0  0  0  0  0  0  0  0
    0.8166   -1.0238   -0.5564 C   0  0  0  0  0  0  0  0  0  0  0  0
   -1.9549    0.2162    0.8897 C   0  0  0  0  0  0  0  0  0  0  0  0
    1.8621   -0.4987    0.4576 C   0  0  0  0  0  0  0  0  0  0  0  0
    3.3107    0.6827    0.5395 H   0  0  0  0  0  0  0  0  0  0  0  0
  1 12  1  0
  2 12  1  0
  3 13  1  0
  4 13  1  0
  5 14  1  0
  6 14  1  0
  7 15  1  0
  8 15  1  0
  9 15  1  0
 10 16  1  0
 10 17  1  0
 11 16  2  0
 12 13  1  0
 12 14  1  0
 13 15  1  0
 14 16  1  0
M  END
$$$$
auto3d
     RDKit          3D

 17 16  0  0  0  0  0  0  0  0999 V2000
    0.9192    0.0673   -2.0041 F   0  0  0  0  0  0  0  0  0  0  0  0
   -0.7204    1.3802   -1.4200 F   0  0  0  0  0  0  0  0  0  0  0  0
    0.0579    1.2906    1.1648 F   0  0  0  0  0  0  0  0  0  0  0  0
    1.5132    2.0698   -0.2714 F   0  0  0  0  0  0  0  0  0  0  0  0
   -1.5534   -1.0560   -1.8487 F   0  0  0  0  0  0  0  0  0  0  0  0
   -0.0217   -1.9288   -0.5644 F   0  0  0  0  0  0  0  0  0  0  0  0
    2.8696   -0.3808   -0.1085 F   0  0  0  0  0  0  0  0  0  0  0  0
    1.4860   -0.9747    1.4495 F   0  0  0  0  0  0  0  0  0  0  0  0
    2.6966    0.7977    1.6967 F   0  0  0  0  0  0  0  0  0  0  0  0
   -2.6682    0.2165    0.2804 O   0  0  0  0  0  0  0  0  0  0  0  0
   -1.7293   -1.4876    1.4125 O   0  0  0  0  0  0  0  0  0  0  0  0
    0.0794    0.3822   -1.0038 C   0  0  0  0  0  0  0  0  0  0  0  0
    0.9151    0.9541    0.1770 C   0  0  0  0  0  0  0  0  0  0  0  0
   -0.8169   -0.8635   -0.7331 C   0  0  0  0  0  0  0  0  0  0  0  0
    2.0205    0.0626    0.8146 C   0  0  0  0  0  0  0  0  0  0  0  0
   -1.7816   -0.7589    0.4734 C   0  0  0  0  0  0  0  0  0  0  0  0
   -3.2661    0.2295    1.0393 H   0  0  0  0  0  0  0  0  0  0  0  0
  1 12  1  0
  2 12  1  0
  3 13  1  0
  4 13  1  0
  5 14  1  0
  6 14  1  0
  7 15  1  0
  8 15  1  0
  9 15  1  0
 10 16  1  0
 10 17  1  0
 11 16  2  0
 12 13  1  0
 12 14  1  0
 13 15  1  0
 14 16  1  0
M  END
$$$$
auto3d
     RDKit          3D

 17 16  0  0  0  0  0  0  0  0999 V2000
   -0.0863    1.3074   -0.8297 F   0  0  0  0  0  0  0  0  0  0  0  0
    0.0322    0.8051    1.3047 F   0  0  0  0  0  0  0  0  0  0  0  0
   -1.4560   -1.4547    0.8522 F   0  0  0  0  0  0  0  0  0  0  0  0
   -1.5732   -0.9546   -1.2777 F   0  0  0  0  0  0  0  0  0  0  0  0
    1.2412   -1.5808    0.6569 F   0  0  0  0  0  0  0  0  0  0  0  0
    1.1526   -1.0408   -1.4605 F   0  0  0  0  0  0  0  0  0  0  0  0
   -3.7783   -0.3498    0.1081 F   0  0  0  0  0  0  0  0  0  0  0  0
   -2.6784    0.9175    1.4703 F   0  0  0  0  0  0  0  0  0  0  0  0
   -2.7905    1.4238   -0.6336 F   0  0  0  0  0  0  0  0  0  0  0  0
    3.5505   -0.5258   -0.2297 O   0  0  0  0  0  0  0  0  0  0  0  0
    2.5430    1.4448    0.1779 O   0  0  0  0  0  0  0  0  0  0  0  0
   -0.0734    0.3036    0.0624 C   0  0  0  0  0  0  0  0  0  0  0  0
   -1.4358   -0.4512   -0.0400 C   0  0  0  0  0  0  0  0  0  0  0  0
    1.1985   -0.5492   -0.2070 C   0  0  0  0  0  0  0  0  0  0  0  0
   -2.6990    0.4220    0.2363 C   0  0  0  0  0  0  0  0  0  0  0  0
    2.5019    0.2768   -0.0545 C   0  0  0  0  0  0  0  0  0  0  0  0
    4.3513    0.0063   -0.1361 H   0  0  0  0  0  0  0  0  0  0  0  0
  1 12  1  0
  2 12  1  0
  3 13  1  0
  4 13  1  0
  5 14  1  0
  6 14  1  0
  7 15  1  0
  8 15  1  0
  9 15  1  0
 10 16  1  0
 10 17  1  0
 11 16  2  0
 12 13  1  0
 12 14  1  0
 13 15  1  0
 14 16  1  0
M  END
$$$$
auto3d
     RDKit          3D

 17 16  0  0  0  0  0  0  0  0999 V2000
   -0.8662   -1.3895   -0.8045 F   0  0  0  0  0  0  0  0  0  0  0  0
   -0.8932   -1.2689    1.3739 F   0  0  0  0  0  0  0  0  0  0  0  0
   -0.6566    1.3128    1.3979 F   0  0  0  0  0  0  0  0  0  0  0  0
    0.0144    1.4080   -0.6807 F   0  0  0  0  0  0  0  0  0  0  0  0
    1.6708   -0.3150    1.3730 F   0  0  0  0  0  0  0  0  0  0  0  0
    1.3605   -2.2861    0.4849 F   0  0  0  0  0  0  0  0  0  0  0  0
   -2.3787    0.7264   -1.5858 F   0  0  0  0  0  0  0  0  0  0  0  0
   -2.5840    2.2637   -0.0807 F   0  0  0  0  0  0  0  0  0  0  0  0
   -3.1018    0.2151    0.3923 F   0  0  0  0  0  0  0  0  0  0  0  0
    2.8191    0.3840   -0.7696 O   0  0  0  0  0  0  0  0  0  0  0  0
    1.6940   -1.0954   -2.0371 O   0  0  0  0  0  0  0  0  0  0  0  0
   -0.3693   -0.7361    0.2591 C   0  0  0  0  0  0  0  0  0  0  0  0
   -0.7950    0.7587    0.1860 C   0  0  0  0  0  0  0  0  0  0  0  0
    1.1707   -0.9634    0.3078 C   0  0  0  0  0  0  0  0  0  0  0  0
   -2.2589    0.9897   -0.2886 C   0  0  0  0  0  0  0  0  0  0  0  0
    1.9126   -0.5656   -0.9923 C   0  0  0  0  0  0  0  0  0  0  0  0
    3.2616    0.5617   -1.6093 H   0  0  0  0  0  0  0  0  0  0  0  0
  1 12  1  0
  2 12  1  0
  3 13  1  0
  4 13  1  0
  5 14  1  0
  6 14  1  0
  7 15  1  0
  8 15  1  0
  9 15  1  0
 10 16  1  0
 10 17  1  0
 11 16  2  0
 12 13  1  0
 12 14  1  0
 13 15  1  0
 14 16  1  0
M  END
$$$$
auto3d
     RDKit          3D

 17 16  0  0  0  0  0  0  0  0999 V2000
   -0.7071    2.0265   -0.3549 F   0  0  0  0  0  0  0  0  0  0  0  0
   -0.1612    0.3217   -1.6025 F   0  0  0  0  0  0  0  0  0  0  0  0
   -0.3732   -1.2240    0.8838 F   0  0  0  0  0  0  0  0  0  0  0  0
   -1.4064    0.5426    1.6529 F   0  0  0  0  0  0  0  0  0  0  0  0
    1.8969    1.8296   -0.6461 F   0  0  0  0  0  0  0  0  0  0  0  0
    1.2897    1.4013    1.4077 F   0  0  0  0  0  0  0  0  0  0  0  0
   -3.1703   -1.1586    0.7587 F   0  0  0  0  0  0  0  0  0  0  0  0
   -2.1116   -1.4988   -1.0944 F   0  0  0  0  0  0  0  0  0  0  0  0
   -3.0235    0.4288   -0.7067 F   0  0  0  0  0  0  0  0  0  0  0  0
    2.5583   -0.7809    1.2459 O   0  0  0  0  0  0  0  0  0  0  0  0
    2.3354   -0.9235   -0.9881 O   0  0  0  0  0  0  0  0  0  0  0  0
   -0.1731    0.7952   -0.3453 C   0  0  0  0  0  0  0  0  0  0  0  0
   -1.0711   -0.1191    0.5373 C   0  0  0  0  0  0  0  0  0  0  0  0
    1.2972    0.9238    0.1519 C   0  0  0  0  0  0  0  0  0  0  0  0
   -2.3801   -0.5984   -0.1543 C   0  0  0  0  0  0  0  0  0  0  0  0
    2.1176   -0.3862    0.0530 C   0  0  0  0  0  0  0  0  0  0  0  0
    3.0827   -1.5801    1.1086 H   0  0  0  0  0  0  0  0  0  0  0  0
  1 12  1  0
  2 12  1  0
  3 13  1  0
  4 13  1  0
  5 14  1  0
  6 14  1  0
  7 15  1  0
  8 15  1  0
  9 15  1  0
 10 16  1  0
 10 17  1  0
 11 16  2  0
 12 13  1  0
 12 14  1  0
 13 15  1  0
 14 16  1  0
M  END
$$$$
auto3d
     RDKit          3D

 17 16  0  0  0  0  0  0  0  0999 V2000
   -0.5970   -1.6831   -0.7987 F   0  0  0  0  0  0  0  0  0  0  0  0
   -0.1094   -1.0962    1.2502 F   0  0  0  0  0  0  0  0  0  0  0  0
    2.0046   -1.8095   -0.1167 F   0  0  0  0  0  0  0  0  0  0  0  0
    1.5188   -0.4848   -1.7851 F   0  0  0  0  0  0  0  0  0  0  0  0
   -0.5681    1.4630    0.7299 F   0  0  0  0  0  0  0  0  0  0  0  0
   -0.7285    1.0845   -1.4165 F   0  0  0  0  0  0  0  0  0  0  0  0
    1.9707    1.6842   -0.2812 F   0  0  0  0  0  0  0  0  0  0  0  0
    3.5963    0.2704   -0.1133 F   0  0  0  0  0  0  0  0  0  0  0  0
    2.1890    0.4909    1.5163 F   0  0  0  0  0  0  0  0  0  0  0  0
   -2.7736    0.1779    1.2414 O   0  0  0  0  0  0  0  0  0  0  0  0
   -3.1492    0.0235   -0.9758 O   0  0  0  0  0  0  0  0  0  0  0  0
   -0.0505   -0.7151   -0.0372 C   0  0  0  0  0  0  0  0  0  0  0  0
    1.4508   -0.6291   -0.4527 C   0  0  0  0  0  0  0  0  0  0  0  0
   -0.9281    0.5595   -0.1998 C   0  0  0  0  0  0  0  0  0  0  0  0
    2.3191    0.4893    0.1906 C   0  0  0  0  0  0  0  0  0  0  0  0
   -2.4324    0.2184   -0.0455 C   0  0  0  0  0  0  0  0  0  0  0  0
   -3.7127   -0.0438    1.2942 H   0  0  0  0  0  0  0  0  0  0  0  0
  1 12  1  0
  2 12  1  0
  3 13  1  0
  4 13  1  0
  5 14  1  0
  6 14  1  0
  7 15  1  0
  8 15  1  0
  9 15  1  0
 10 16  1  0
 10 17  1  0
 11 16  2  0
 12 13  1  0
 12 14  1  0
 13 15  1  0
 14 16  1  0
M  END
$$$$
auto3d
     RDKit          3D

 17 16  0  0  0  0  0  0  0  0999 V2000
    0.9695    1.3665    1.0705 F   0  0  0  0  0  0  0  0  0  0  0  0
    0.2407    1.2722   -0.9888 F   0  0  0  0  0  0  0  0  0  0  0  0
   -1.2712    0.4117    2.0462 F   0  0  0  0  0  0  0  0  0  0  0  0
   -1.5954    2.0906    0.6857 F   0  0  0  0  0  0  0  0  0  0  0  0
    0.5923   -1.4445    1.1898 F   0  0  0  0  0  0  0  0  0  0  0  0
    0.2178   -1.3792   -0.9623 F   0  0  0  0  0  0  0  0  0  0  0  0
   -3.5632    0.3735    0.4882 F   0  0  0  0  0  0  0  0  0  0  0  0
   -2.2414   -1.3191    0.2482 F   0  0  0  0  0  0  0  0  0  0  0  0
   -2.3381    0.2080   -1.2885 F   0  0  0  0  0  0  0  0  0  0  0  0
    2.5947   -0.4456   -1.4675 O   0  0  0  0  0  0  0  0  0  0  0  0
    3.1402   -0.7790    0.6941 O   0  0  0  0  0  0  0  0  0  0  0  0
    0.1931    0.6743    0.2139 C   0  0  0  0  0  0  0  0  0  0  0  0
   -1.2645    0.7873    0.7580 C   0  0  0  0  0  0  0  0  0  0  0  0
    0.8104   -0.7466    0.0668 C   0  0  0  0  0  0  0  0  0  0  0  0
   -2.3773   -0.0141    0.0244 C   0  0  0  0  0  0  0  0  0  0  0  0
    2.3387   -0.6627   -0.1784 C   0  0  0  0  0  0  0  0  0  0  0  0
    3.5535   -0.3932   -1.5764 H   0  0  0  0  0  0  0  0  0  0  0  0
  1 12  1  0
  2 12  1  0
  3 13  1  0
  4 13  1  0
  5 14  1  0
  6 14  1  0
  7 15  1  0
  8 15  1  0
  9 15  1  0
 10 16  1  0
 10 17  1  0
 11 16  2  0
 12 13  1  0
 12 14  1  0
 13 15  1  0
 14 16  1  0
M  END
$$$$
auto3d
     RDKit          3D

 17 16  0  0  0  0  0  0  0  0999 V2000
   -0.1275    0.2530   -1.8982 F   0  0  0  0  0  0  0  0  0  0  0  0
    0.7835   -1.6211   -1.2295 F   0  0  0  0  0  0  0  0  0  0  0  0
    1.1700   -0.4707    1.2849 F   0  0  0  0  0  0  0  0  0  0  0  0
    0.3325    1.3973    0.5080 F   0  0  0  0  0  0  0  0  0  0  0  0
   -1.0705   -1.9405    0.6577 F   0  0  0  0  0  0  0  0  0  0  0  0
   -1.9019   -1.5943   -1.3271 F   0  0  0  0  0  0  0  0  0  0  0  0
    2.9926    1.4016    0.6228 F   0  0  0  0  0  0  0  0  0  0  0  0
    2.2986    1.4487   -1.4242 F   0  0  0  0  0  0  0  0  0  0  0  0
    3.1437   -0.3704   -0.6058 F   0  0  0  0  0  0  0  0  0  0  0  0
   -2.1341    0.2002    1.5669 O   0  0  0  0  0  0  0  0  0  0  0  0
   -2.8090    0.8328   -0.4855 O   0  0  0  0  0  0  0  0  0  0  0  0
    0.1096   -0.5293   -0.8323 C   0  0  0  0  0  0  0  0  0  0  0  0
    0.9865    0.2649    0.1779 C   0  0  0  0  0  0  0  0  0  0  0  0
   -1.2724   -1.0122   -0.2909 C   0  0  0  0  0  0  0  0  0  0  0  0
    2.3943    0.6934   -0.3344 C   0  0  0  0  0  0  0  0  0  0  0  0
   -2.1727    0.1310    0.2363 C   0  0  0  0  0  0  0  0  0  0  0  0
   -2.7233    0.9153    1.8400 H   0  0  0  0  0  0  0  0  0  0  0  0
  1 12  1  0
  2 12  1  0
  3 13  1  0
  4 13  1  0
  5 14  1  0
  6 14  1  0
  7 15  1  0
  8 15  1  0
  9 15  1  0
 10 16  1  0
 10 17  1  0
 11 16  2  0
 12 13  1  0
 12 14  1  0
 13 15  1  0
 14 16  1  0
M  END
$$$$
auto3d
     RDKit          3D

 17 16  0  0  0  0  0  0  0  0999 V2000
   -0.4434   -1.3866   -1.2900 F   0  0  0  0  0  0  0  0  0  0  0  0
   -0.9452   -1.6216    0.8271 F   0  0  0  0  0  0  0  0  0  0  0  0
   -0.2573    1.2962   -1.0023 F   0  0  0  0  0  0  0  0  0  0  0  0
   -0.6594    1.1368    1.1442 F   0  0  0  0  0  0  0  0  0  0  0  0
    1.5741   -2.2593    0.1441 F   0  0  0  0  0  0  0  0  0  0  0  0
    1.4100   -0.6249    1.5768 F   0  0  0  0  0  0  0  0  0  0  0  0
   -2.7083    0.1480   -1.5244 F   0  0  0  0  0  0  0  0  0  0  0  0
   -2.7511    1.9584   -0.3435 F   0  0  0  0  0  0  0  0  0  0  0  0
   -3.1098    0.0481    0.6021 F   0  0  0  0  0  0  0  0  0  0  0  0
    2.5081    1.0177   -0.0468 O   0  0  0  0  0  0  0  0  0  0  0  0
    2.4765   -0.4887   -1.7195 O   0  0  0  0  0  0  0  0  0  0  0  0
   -0.2809   -0.8659   -0.0625 C   0  0  0  0  0  0  0  0  0  0  0  0
   -0.8800    0.5698   -0.0516 C   0  0  0  0  0  0  0  0  0  0  0  0
    1.2364   -0.9656    0.2899 C   0  0  0  0  0  0  0  0  0  0  0  0
   -2.4080    0.6708   -0.3395 C   0  0  0  0  0  0  0  0  0  0  0  0
    2.1505   -0.1247   -0.6334 C   0  0  0  0  0  0  0  0  0  0  0  0
    3.0877    1.4913   -0.6574 H   0  0  0  0  0  0  0  0  0  0  0  0
  1 12  1  0
  2 12  1  0
  3 13  1  0
  4 13  1  0
  5 14  1  0
  6 14  1  0
  7 15  1  0
  8 15  1  0
  9 15  1  0
 10 16  1  0
 10 17  1  0
 11 16  2  0
 12 13  1  0
 12 14  1  0
 13 15  1  0
 14 16  1  0
M  END
$$$$
auto3d
     RDKit          3D

 17 16  0  0  0  0  0  0  0  0999 V2000
   -0.1707    0.0132    1.9790 F   0  0  0  0  0  0  0  0  0  0  0  0
   -0.6859    1.6918    0.6767 F   0  0  0  0  0  0  0  0  0  0  0  0
    1.4998    1.4322   -0.7465 F   0  0  0  0  0  0  0  0  0  0  0  0
    1.8978    1.5131    1.4010 F   0  0  0  0  0  0  0  0  0  0  0  0
   -0.4586   -1.7337    0.0228 F   0  0  0  0  0  0  0  0  0  0  0  0
   -0.6411   -0.1645   -1.4869 F   0  0  0  0  0  0  0  0  0  0  0  0
    2.2391   -1.2902    1.3366 F   0  0  0  0  0  0  0  0  0  0  0  0
    2.0895   -1.1788   -0.8240 F   0  0  0  0  0  0  0  0  0  0  0  0
    3.6222   -0.0621    0.2122 F   0  0  0  0  0  0  0  0  0  0  0  0
   -2.9883    0.5016   -0.6599 O   0  0  0  0  0  0  0  0  0  0  0  0
   -2.9136   -1.0956    0.9294 O   0  0  0  0  0  0  0  0  0  0  0  0
   -0.0814    0.4867    0.7263 C   0  0  0  0  0  0  0  0  0  0  0  0
    1.4225    0.7438    0.4037 C   0  0  0  0  0  0  0  0  0  0  0  0
   -0.8752   -0.4781   -0.2012 C   0  0  0  0  0  0  0  0  0  0  0  0
    2.3632   -0.4884    0.2807 C   0  0  0  0  0  0  0  0  0  0  0  0
   -2.3929   -0.4091    0.1071 C   0  0  0  0  0  0  0  0  0  0  0  0
   -3.9264    0.5182   -0.4291 H   0  0  0  0  0  0  0  0  0  0  0  0
  1 12  1  0
  2 12  1  0
  3 13  1  0
  4 13  1  0
  5 14  1  0
  6 14  1  0
  7 15  1  0
  8 15  1  0
  9 15  1  0
 10 16  1  0
 10 17  1  0
 11 16  2  0
 12 13  1  0
 12 14  1  0
 13 15  1  0
 14 16  1  0
M  END
$$$$
auto3d
     RDKit          3D

 17 16  0  0  0  0  0  0  0  0999 V2000
   -0.3186    1.6692   -0.3526 F   0  0  0  0  0  0  0  0  0  0  0  0
   -0.9421    0.7954    1.5518 F   0  0  0  0  0  0  0  0  0  0  0  0
    1.5713    1.7452    1.4605 F   0  0  0  0  0  0  0  0  0  0  0  0
    1.3711   -0.3818    1.9216 F   0  0  0  0  0  0  0  0  0  0  0  0
   -0.2013   -0.6945   -1.5217 F   0  0  0  0  0  0  0  0  0  0  0  0
   -0.4709   -1.7544    0.3702 F   0  0  0  0  0  0  0  0  0  0  0  0
    3.5857    0.4038    0.4582 F   0  0  0  0  0  0  0  0  0  0  0  0
    2.2880    0.9983   -1.1691 F   0  0  0  0  0  0  0  0  0  0  0  0
    2.3117   -1.0614   -0.4907 F   0  0  0  0  0  0  0  0  0  0  0  0
   -2.9469   -1.0565    0.5269 O   0  0  0  0  0  0  0  0  0  0  0  0
   -2.7862    0.0544   -1.4282 O   0  0  0  0  0  0  0  0  0  0  0  0
   -0.1883    0.6012    0.4499 C   0  0  0  0  0  0  0  0  0  0  0  0
    1.2895    0.5346    0.9435 C   0  0  0  0  0  0  0  0  0  0  0  0
   -0.7649   -0.6306   -0.3058 C   0  0  0  0  0  0  0  0  0  0  0  0
    2.3940    0.2091   -0.1018 C   0  0  0  0  0  0  0  0  0  0  0  0
   -2.2980   -0.4926   -0.4894 C   0  0  0  0  0  0  0  0  0  0  0  0
   -3.8942   -0.9397    0.3770 H   0  0  0  0  0  0  0  0  0  0  0  0
  1 12  1  0
  2 12  1  0
  3 13  1  0
  4 13  1  0
  5 14  1  0
  6 14  1  0
  7 15  1  0
  8 15  1  0
  9 15  1  0
 10 16  1  0
 10 17  1  0
 11 16  2  0
 12 13  1  0
 12 14  1  0
 13 15  1  0
 14 16  1  0
M  END
$$$$
auto3d
     RDKit          3D

 17 16  0  0  0  0  0  0  0  0999 V2000
   -0.0321    0.2376    2.0579 F   0  0  0  0  0  0  0  0  0  0  0  0
   -0.9984   -1.5837    1.3329 F   0  0  0  0  0  0  0  0  0  0  0  0
   -0.2010    1.3840   -0.3619 F   0  0  0  0  0  0  0  0  0  0  0  0
   -1.0443   -0.4392   -1.2348 F   0  0  0  0  0  0  0  0  0  0  0  0
    0.9506   -2.1030   -0.3367 F   0  0  0  0  0  0  0  0  0  0  0  0
    1.7182   -1.6629    1.6566 F   0  0  0  0  0  0  0  0  0  0  0  0
   -3.2065   -0.2310    0.4221 F   0  0  0  0  0  0  0  0  0  0  0  0
   -2.3570    1.5312    1.3533 F   0  0  0  0  0  0  0  0  0  0  0  0
   -2.8260    1.5402   -0.7575 F   0  0  0  0  0  0  0  0  0  0  0  0
    2.5703    0.7587    0.8700 O   0  0  0  0  0  0  0  0  0  0  0  0
    2.4709   -0.1111   -1.2045 O   0  0  0  0  0  0  0  0  0  0  0  0
   -0.2233   -0.5448    0.9828 C   0  0  0  0  0  0  0  0  0  0  0  0
   -0.9469    0.2879   -0.1119 C   0  0  0  0  0  0  0  0  0  0  0  0
    1.1619   -1.1241    0.5509 C   0  0  0  0  0  0  0  0  0  0  0  0
   -2.3755    0.7915    0.2477 C   0  0  0  0  0  0  0  0  0  0  0  0
    2.1461   -0.0978   -0.0593 C   0  0  0  0  0  0  0  0  0  0  0  0
    3.1931    1.3664    0.4502 H   0  0  0  0  0  0  0  0  0  0  0  0
  1 12  1  0
  2 12  1  0
  3 13  1  0
  4 13  1  0
  5 14  1  0
  6 14  1  0
  7 15  1  0
  8 15  1  0
  9 15  1  0
 10 16  1  0
 10 17  1  0
 11 16  2  0
 12 13  1  0
 12 14  1  0
 13 15  1  0
 14 16  1  0
M  END
$$$$
auto3d
     RDKit          3D

 17 16  0  0  0  0  0  0  0  0999 V2000
    0.1920    0.3291    1.6875 F   0  0  0  0  0  0  0  0  0  0  0  0
   -0.7988    1.8899    0.5217 F   0  0  0  0  0  0  0  0  0  0  0  0
   -1.2328   -0.0121   -1.5028 F   0  0  0  0  0  0  0  0  0  0  0  0
   -0.3435   -1.5176   -0.1837 F   0  0  0  0  0  0  0  0  0  0  0  0
    1.9377    1.8578    0.4824 F   0  0  0  0  0  0  0  0  0  0  0  0
    0.9231    1.6918   -1.4409 F   0  0  0  0  0  0  0  0  0  0  0  0
   -3.1563    0.4918    0.3708 F   0  0  0  0  0  0  0  0  0  0  0  0
   -3.0019   -1.5885   -0.1970 F   0  0  0  0  0  0  0  0  0  0  0  0
   -2.2509   -0.9380    1.7236 F   0  0  0  0  0  0  0  0  0  0  0  0
    2.5893   -0.7466    0.4424 O   0  0  0  0  0  0  0  0  0  0  0  0
    2.2406   -0.5850   -1.7762 O   0  0  0  0  0  0  0  0  0  0  0  0
   -0.1155    0.7367    0.4450 C   0  0  0  0  0  0  0  0  0  0  0  0
   -1.0097   -0.3449   -0.2228 C   0  0  0  0  0  0  0  0  0  0  0  0
    1.2181    1.0370   -0.3118 C   0  0  0  0  0  0  0  0  0  0  0  0
   -2.3931   -0.5938    0.4464 C   0  0  0  0  0  0  0  0  0  0  0  0
    2.0737   -0.2041   -0.6608 C   0  0  0  0  0  0  0  0  0  0  0  0
    3.1277   -1.5033    0.1763 H   0  0  0  0  0  0  0  0  0  0  0  0
  1 12  1  0
  2 12  1  0
  3 13  1  0
  4 13  1  0
  5 14  1  0
  6 14  1  0
  7 15  1  0
  8 15  1  0
  9 15  1  0
 10 16  1  0
 10 17  1  0
 11 16  2  0
 12 13  1  0
 12 14  1  0
 13 15  1  0
 14 16  1  0
M  END
$$$$
auto3d
     RDKit          3D

 17 16  0  0  0  0  0  0  0  0999 V2000
    0.0867    0.6529    1.3203 F   0  0  0  0  0  0  0  0  0  0  0  0
    0.0819    1.2797   -0.7769 F   0  0  0  0  0  0  0  0  0  0  0  0
   -1.4849   -1.5659    0.5588 F   0  0  0  0  0  0  0  0  0  0  0  0
   -1.5759   -0.7076   -1.4549 F   0  0  0  0  0  0  0  0  0  0  0  0
    1.2284   -1.7063    0.6554 F   0  0  0  0  0  0  0  0  0  0  0  0
    1.1274   -1.2000   -1.4682 F   0  0  0  0  0  0  0  0  0  0  0  0
   -3.7468   -0.1845   -0.0274 F   0  0  0  0  0  0  0  0  0  0  0  0
   -2.6041    0.6812    1.5901 F   0  0  0  0  0  0  0  0  0  0  0  0
   -2.6148    1.6275   -0.3584 F   0  0  0  0  0  0  0  0  0  0  0  0
    2.9746    0.1406    1.1338 O   0  0  0  0  0  0  0  0  0  0  0  0
    3.0412    0.6441   -1.0610 O   0  0  0  0  0  0  0  0  0  0  0  0
   -0.0125    0.2237    0.0488 C   0  0  0  0  0  0  0  0  0  0  0  0
   -1.4140   -0.4287   -0.1525 C   0  0  0  0  0  0  0  0  0  0  0  0
    1.2157   -0.6962   -0.2294 C   0  0  0  0  0  0  0  0  0  0  0  0
   -2.6219    0.4595    0.2791 C   0  0  0  0  0  0  0  0  0  0  0  0
    2.5302    0.1197   -0.1219 C   0  0  0  0  0  0  0  0  0  0  0  0
    3.7890    0.6604    1.1518 H   0  0  0  0  0  0  0  0  0  0  0  0
  1 12  1  0
  2 12  1  0
  3 13  1  0
  4 13  1  0
  5 14  1  0
  6 14  1  0
  7 15  1  0
  8 15  1  0
  9 15  1  0
 10 16  1  0
 10 17  1  0
 11 16  2  0
 12 13  1  0
 12 14  1  0
 13 15  1  0
 14 16  1  0
M  END
$$$$
auto3d
     RDKit          3D

 17 16  0  0  0  0  0  0  0  0999 V2000
    0.2356    0.8091    1.2860 F   0  0  0  0  0  0  0  0  0  0  0  0
    0.3191    1.0548   -0.8874 F   0  0  0  0  0  0  0  0  0  0  0  0
   -1.6931   -0.9221   -1.0842 F   0  0  0  0  0  0  0  0  0  0  0  0
   -1.8137   -0.8952    1.1031 F   0  0  0  0  0  0  0  0  0  0  0  0
    0.7490   -1.8969    0.9552 F   0  0  0  0  0  0  0  0  0  0  0  0
    0.9400   -1.5630   -1.1960 F   0  0  0  0  0  0  0  0  0  0  0  0
   -3.7094    0.5651   -0.0301 F   0  0  0  0  0  0  0  0  0  0  0  0
   -2.2864    1.7197   -1.1762 F   0  0  0  0  0  0  0  0  0  0  0  0
   -2.2954    1.8466    0.9862 F   0  0  0  0  0  0  0  0  0  0  0  0
    3.0317   -0.0738   -0.8997 O   0  0  0  0  0  0  0  0  0  0  0  0
    2.9962   -0.4635    1.3190 O   0  0  0  0  0  0  0  0  0  0  0  0
    0.0269    0.1975    0.1079 C   0  0  0  0  0  0  0  0  0  0  0  0
   -1.4827   -0.1814    0.0163 C   0  0  0  0  0  0  0  0  0  0  0  0
    1.0360   -0.9876    0.0135 C   0  0  0  0  0  0  0  0  0  0  0  0
   -2.4619    1.0313   -0.0521 C   0  0  0  0  0  0  0  0  0  0  0  0
    2.4823   -0.4776    0.2448 C   0  0  0  0  0  0  0  0  0  0  0  0
    3.9260    0.2370   -0.7062 H   0  0  0  0  0  0  0  0  0  0  0  0
  1 12  1  0
  2 12  1  0
  3 13  1  0
  4 13  1  0
  5 14  1  0
  6 14  1  0
  7 15  1  0
  8 15  1  0
  9 15  1  0
 10 16  1  0
 10 17  1  0
 11 16  2  0
 12 13  1  0
 12 14  1  0
 13 15  1  0
 14 16  1  0
M  END
$$$$
