  17

 F         -0.5903790000       -1.6715030000       -0.8534880000
 F         -0.1367470000       -1.1298970000        1.2118630000
 F          2.0049590000       -1.8123680000       -0.1473960000
 F          1.5351400000       -0.4444500000       -1.7890150000
 F         -0.5453970000        1.4643850000        0.7028600000
 F         -0.7411060000        1.0747680000       -1.4373330000
 F          1.9531820000        1.6849020000       -0.2457580000
 F          3.5884400000        0.2826950000       -0.0772670000
 F          2.1578330000        0.4645330000        1.5376200000
 O         -2.7713600000        0.2943620000        1.2518580000
 O         -3.1165160000       -0.1388680000       -0.9350750000
 C         -0.0530860000       -0.7227580000       -0.0666380000
 C          1.4527860000       -0.6250810000       -0.4608190000
 C         -0.9242560000        0.5574900000       -0.2146480000
 C          2.3062520000        0.4863040000        0.2135390000
 C         -2.4194340000        0.1912600000       -0.0286650000
 H         -3.7003130000        0.0442260000        1.3383630000
