     16

F      -0.5839478368   -2.0380759130    0.0681468913
F      -0.3546305030   -0.3877965742    1.4368787776
F       1.8368887049   -1.6212540528   -0.3645245260
F       1.1028012345   -0.0833470159   -1.6922633719
F      -0.9987003392    1.2902360070   -0.9391131246
F      -1.6628105512   -0.5812660471   -1.8020953413
F       3.0135872803    0.9724413589   -0.2195191298
F       2.2851493896    0.0788330219    1.5986290839
F       1.1770825623    1.6715840911    0.6591910373
O      -2.6473455013    1.2023266638    0.9750336756
O      -3.5806826266   -0.7101241405    0.2296300732
C      -0.3117494678   -0.7315175962    0.1338790166
C       1.1408902977   -0.4778775267   -0.4140355278
C      -1.4287473455    0.0513875098   -0.6449964653
C       1.9229115484    0.5961889520    0.4312796958
C      -2.7255745029    0.1141750830    0.2405539072
