17

F     -0.590441   -1.671558   -0.853472
F     -0.136786   -1.129958    1.211845
F      2.004941   -1.812344   -0.147345
F      1.535194   -0.444388   -1.788953
F     -0.545371    1.464324    0.702750
F     -0.741085    1.074647   -1.437358
F      1.953222    1.684968   -0.245721
F      3.588451    0.282675   -0.077344
F      2.157945    0.464598    1.537650
O     -2.771319    0.294232    1.251881
O     -3.116664   -0.138649   -0.935095
C     -0.053108   -0.722814   -0.066646
C      1.452793   -0.625043   -0.460768
C     -0.924273    0.557411   -0.214688
C      2.306289    0.486369    0.213566
C     -2.419493    0.191307   -0.028689
H     -3.700294    0.044223    1.338386
