  17

 F         -0.5904000000       -1.6718000000       -0.8533000000
 F         -0.1369000000       -1.1297000000        1.2120000000
 F          2.0050000000       -1.8122000000       -0.1474000000
 F          1.5356000000       -0.4441000000       -1.7887000000
 F         -0.5453000000        1.4647000000        0.7015000000
 F         -0.7413000000        1.0734000000       -1.4384000000
 F          1.9530000000        1.6850000000       -0.2447000000
 F          3.5882000000        0.2831000000       -0.0776000000
 F          2.1583000000        0.4640000000        1.5380000000
 O         -2.7707000000        0.2934000000        1.2521000000
 O         -3.1173000000       -0.1371000000       -0.9351000000
 C         -0.0532000000       -0.7229000000       -0.0666000000
 C          1.4527000000       -0.6250000000       -0.4606000000
 C         -0.9244000000        0.5574000000       -0.2153000000
 C          2.3061000000        0.4863000000        0.2139000000
 C         -2.4196000000        0.1917000000       -0.0288000000
 H         -3.6997000000        0.0439000000        1.3391000000
