     16

F      -0.5863738256   -2.0352038471    0.0729982249
F      -0.3548363297   -0.3821358734    1.4378126054
F       1.8355321993   -1.6228575274   -0.3584021747
F       1.1039095244   -0.0883409711   -1.6917674401
F      -0.9985023050    1.2932028115   -0.9367905338
F      -1.6585849895   -0.5779552714   -1.8037001881
F       3.0178166229    0.9658002465   -0.2204169238
F       2.2814642055    0.0856898053    1.6008600184
F       1.1812731305    1.6763303498    0.6488399589
O      -2.6467846239    1.1937720392    0.9824139121
O      -3.5857029030   -0.7070887824    0.2156174271
C      -0.3122314823   -0.7289365658    0.1356546073
C       1.1409114334   -0.4788959490   -0.4121659847
C      -1.4281792177    0.0535215100   -0.6453088145
C       1.9239929361    0.5972913658    0.4295437300
C      -2.7272095127    0.1134818070    0.2369892379
