
     RDKit          3D

 17 16  0  0  0  0  0  0  0  0999 V2000
   -0.5904   -1.6718   -0.8533 F   0  0  0  0  0  0  0  0  0  0  0  0
   -0.1369   -1.1297    1.2120 F   0  0  0  0  0  0  0  0  0  0  0  0
    2.0050   -1.8122   -0.1474 F   0  0  0  0  0  0  0  0  0  0  0  0
    1.5356   -0.4441   -1.7887 F   0  0  0  0  0  0  0  0  0  0  0  0
   -0.5453    1.4647    0.7015 F   0  0  0  0  0  0  0  0  0  0  0  0
   -0.7413    1.0734   -1.4384 F   0  0  0  0  0  0  0  0  0  0  0  0
    1.9530    1.6850   -0.2447 F   0  0  0  0  0  0  0  0  0  0  0  0
    3.5882    0.2831   -0.0776 F   0  0  0  0  0  0  0  0  0  0  0  0
    2.1583    0.4640    1.5380 F   0  0  0  0  0  0  0  0  0  0  0  0
   -2.7707    0.2934    1.2521 O   0  0  0  0  0  0  0  0  0  0  0  0
   -3.1173   -0.1371   -0.9351 O   0  0  0  0  0  0  0  0  0  0  0  0
   -0.0532   -0.7229   -0.0666 C   0  0  0  0  0  0  0  0  0  0  0  0
    1.4527   -0.6250   -0.4606 C   0  0  0  0  0  0  0  0  0  0  0  0
   -0.9244    0.5574   -0.2153 C   0  0  0  0  0  0  0  0  0  0  0  0
    2.3061    0.4863    0.2139 C   0  0  0  0  0  0  0  0  0  0  0  0
   -2.4196    0.1917   -0.0288 C   0  0  0  0  0  0  0  0  0  0  0  0
   -3.6997    0.0439    1.3391 H   0  0  0  0  0  0  0  0  0  0  0  0
  1 12  1  0
  2 12  1  0
  3 13  1  0
  4 13  1  0
  5 14  1  0
  6 14  1  0
  7 15  1  0
  8 15  1  0
  9 15  1  0
 10 16  1  0
 10 17  1  0
 11 16  2  0
 12 13  1  0
 12 14  1  0
 13 15  1  0
 14 16  1  0
M  END
$$$$
