  16

 F         -0.5778245314       -1.9970682408        0.0999427549
 F         -0.2781448695       -0.3374484586        1.4476585219
 F          1.8282350965       -1.6449831230       -0.3622359676
 F          1.1506068816       -0.1024992824       -1.7081279952
 F         -0.9292466118        1.3765398461       -0.8194297053
 F         -1.5688435982       -0.4458706279       -1.8339838119
 F          3.1144423520        0.8408908976       -0.2740087610
 F          2.3562629827        0.0362768478        1.5659568550
 F          1.3618946054        1.6967027288        0.6216510583
 O         -3.1695061338        1.2423045558        0.7810711293
 O         -3.4742274305       -0.9609100640        0.3078676631
 C         -0.3262209561       -0.6778668940        0.1354745227
 C          1.1440915009       -0.4784377913       -0.4213633419
 C         -1.4266230546        0.1169097354       -0.5926751890
 C          1.9870146764        0.5538287229        0.3934825534
 C         -3.0054160470        0.1393062949        0.3508973758
