26
pfoa.pdb
C         -2.06700       -0.36300        0.57400
C         -0.54700       -0.46000        0.21200
C          0.13000        0.92600        0.43700
C          1.54700        1.10400       -0.19800
C          2.60600        0.05200        0.26200
C          4.06600        0.52600       -0.04500
C          5.08000       -0.66100       -0.05300
C          6.55800       -0.17300        0.09600
F         -0.37500       -0.85500       -1.06300
F          0.05300       -1.37300        0.99600
F         -0.66000        1.88500       -0.08900
F          0.20300        1.17000        1.75400
F          1.44200        1.05100       -1.53500
F          1.98100        2.33700        0.11400
F          2.36500       -1.10900       -0.36400
F          2.50800       -0.16900        1.58100
F          4.42900        1.42600        0.88200
F          4.12200        1.13800       -1.23700
F          4.95900       -1.33100       -1.20900
F          4.81400       -1.51900        0.94300
F          6.81000        0.84800       -0.71300
F          7.39200       -1.15700       -0.20700
F          6.80100        0.20900        1.34200
O         -2.47200       -0.52600        1.67900
O         -2.76100       -0.06600       -0.50000
H         -3.71300        0.01000       -0.31400