  17

 F         -0.5905000000       -1.6717000000       -0.8534000000
 F         -0.1369000000       -1.1299000000        1.2119000000
 F          2.0049000000       -1.8123000000       -0.1473000000
 F          1.5354000000       -0.4442000000       -1.7888000000
 F         -0.5453000000        1.4644000000        0.7021000000
 F         -0.7412000000        1.0741000000       -1.4377000000
 F          1.9532000000        1.6851000000       -0.2453000000
 F          3.5884000000        0.2828000000       -0.0775000000
 F          2.1582000000        0.4645000000        1.5378000000
 O         -2.7710000000        0.2938000000        1.2520000000
 O         -3.1171000000       -0.1378000000       -0.9351000000
 C         -0.0532000000       -0.7229000000       -0.0667000000
 C          1.4528000000       -0.6250000000       -0.4607000000
 C         -0.9243000000        0.5573000000       -0.2149000000
 C          2.3063000000        0.4864000000        0.2137000000
 C         -2.4196000000        0.1915000000       -0.0287000000
 H         -3.7000000000        0.0441000000        1.3387000000
