     16

F      -0.5825895521   -2.0485099777    0.0470311690
F      -0.3599827764   -0.4116752897    1.4328954843
F       1.8453092799   -1.6191621003   -0.3520136500
F       1.1088900796   -0.0942098459   -1.6933715489
F      -0.9924557131    1.2801945725   -0.9528362683
F      -1.6734589078   -0.5910527210   -1.8018893232
F       2.9984521299    0.9893198776   -0.2145069833
F       2.2739384515    0.0897960854    1.6021404631
F       1.1526057883    1.6701655350    0.6585735880
O      -2.6202307038    1.2066663550    0.9824610868
O      -3.5874164089   -0.6876636900    0.2338819158
C      -0.3126901243   -0.7422689637    0.1264939797
C       1.1414508465   -0.4810922514   -0.4126972811
C      -1.4286836477    0.0456074084   -0.6494404508
C       1.9098542266    0.6023841682    0.4332309202
C      -2.7196563126    0.1232387663    0.2436978210
