  16

 F         -0.5787597275       -1.9991057201        0.0984029156
 F         -0.2799591501       -0.3400243208        1.4469730971
 F          1.8271329562       -1.6453454920       -0.3635258353
 F          1.1484896552       -0.1027783016       -1.7088074038
 F         -0.9320993784        1.3746975751       -0.8194370519
 F         -1.5709337470       -0.4476483103       -1.8345741275
 F          3.1116741779        0.8414696446       -0.2744362494
 F          2.3542909387        0.0354057473        1.5652234805
 F          1.3586274228        1.6955864884        0.6218618867
 O         -3.1718962715        1.2387646021        0.7814931122
 O         -3.4758350136       -0.9643434425        0.3073089042
 C         -0.3279161359       -0.6797769141        0.1346123560
 C          1.1422500047       -0.4792089754       -0.4221861509
 C         -1.4288163914        0.1147346690       -0.5930768224
 C          1.9845338984        0.5532748141        0.3930479116
 C         -3.0074465830        0.1360358651        0.3507708995
