auto3d
     RDKit          3D

 17 16  0  0  0  0  0  0  0  0999 V2000
   -0.0777   -1.1911   -2.1946 F   0  0  0  0  0  0  0  0  0  0  0  0
    0.3161    0.8842   -1.6624 F   0  0  0  0  0  0  0  0  0  0  0  0
   -2.2399    0.1396   -1.5294 F   0  0  0  0  0  0  0  0  0  0  0  0
   -1.7713   -1.5020   -0.1645 F   0  0  0  0  0  0  0  0  0  0  0  0
    0.9218   -2.0716    0.1265 F   0  0  0  0  0  0  0  0  0  0  0  0
    2.2680   -0.9111   -1.1482 F   0  0  0  0  0  0  0  0  0  0  0  0
   -2.9268    0.6414    1.0065 F   0  0  0  0  0  0  0  0  0  0  0  0
   -0.9091    0.2854    1.7012 F   0  0  0  0  0  0  0  0  0  0  0  0
   -1.3209    1.9352    0.3559 F   0  0  0  0  0  0  0  0  0  0  0  0
    1.6622    1.3016    0.6570 O   0  0  0  0  0  0  0  0  0  0  0  0
    2.1435   -0.5207    1.8886 O   0  0  0  0  0  0  0  0  0  0  0  0
    0.0175   -0.3281   -1.1659 C   0  0  0  0  0  0  0  0  0  0  0  0
   -1.4124   -0.2662   -0.5483 C   0  0  0  0  0  0  0  0  0  0  0  0
    1.2136   -0.8355   -0.2989 C   0  0  0  0  0  0  0  0  0  0  0  0
   -1.6460    0.6822    0.6566 C   0  0  0  0  0  0  0  0  0  0  0  0
    1.7132   -0.0065    0.9069 C   0  0  0  0  0  0  0  0  0  0  0  0
    2.0481    1.7629    1.4131 H   0  0  0  0  0  0  0  0  0  0  0  0
  1 12  1  0
  2 12  1  0
  3 13  1  0
  4 13  1  0
  5 14  1  0
  6 14  1  0
  7 15  1  0
  8 15  1  0
  9 15  1  0
 10 16  1  0
 10 17  1  0
 11 16  2  0
 12 13  1  0
 12 14  1  0
 13 15  1  0
 14 16  1  0
M  END
$$$$
auto3d
     RDKit          3D

 17 16  0  0  0  0  0  0  0  0999 V2000
    0.2070   -0.4576    1.8939 F   0  0  0  0  0  0  0  0  0  0  0  0
   -0.1176   -2.3556    0.8755 F   0  0  0  0  0  0  0  0  0  0  0  0
   -2.3059   -0.9323    1.1407 F   0  0  0  0  0  0  0  0  0  0  0  0
   -1.7075   -1.2311   -0.9402 F   0  0  0  0  0  0  0  0  0  0  0  0
    2.2566   -1.4342    0.4331 F   0  0  0  0  0  0  0  0  0  0  0  0
    1.0193   -1.4515   -1.3704 F   0  0  0  0  0  0  0  0  0  0  0  0
   -1.3870    1.6685    1.0035 F   0  0  0  0  0  0  0  0  0  0  0  0
   -0.8490    1.3495   -1.0726 F   0  0  0  0  0  0  0  0  0  0  0  0
   -2.9071    1.1385   -0.4404 F   0  0  0  0  0  0  0  0  0  0  0  0
    1.6263    1.4147    0.5331 O   0  0  0  0  0  0  0  0  0  0  0  0
    2.2419    0.8872   -1.5675 O   0  0  0  0  0  0  0  0  0  0  0  0
   -0.0167   -1.0253    0.6968 C   0  0  0  0  0  0  0  0  0  0  0  0
   -1.4204   -0.5710    0.1935 C   0  0  0  0  0  0  0  0  0  0  0  0
    1.2365   -0.8157   -0.2117 C   0  0  0  0  0  0  0  0  0  0  0  0
   -1.6447    0.9397   -0.0775 C   0  0  0  0  0  0  0  0  0  0  0  0
    1.7479    0.6100   -0.5223 C   0  0  0  0  0  0  0  0  0  0  0  0
    2.0205    2.2663    0.3032 H   0  0  0  0  0  0  0  0  0  0  0  0
  1 12  1  0
  2 12  1  0
  3 13  1  0
  4 13  1  0
  5 14  1  0
  6 14  1  0
  7 15  1  0
  8 15  1  0
  9 15  1  0
 10 16  1  0
 10 17  1  0
 11 16  2  0
 12 13  1  0
 12 14  1  0
 13 15  1  0
 14 16  1  0
M  END
$$$$
auto3d
     RDKit          3D

 17 16  0  0  0  0  0  0  0  0999 V2000
    0.1506    0.1325   -2.0056 F   0  0  0  0  0  0  0  0  0  0  0  0
   -0.2921   -1.9544   -1.5567 F   0  0  0  0  0  0  0  0  0  0  0  0
   -1.8744   -1.3455    0.4420 F   0  0  0  0  0  0  0  0  0  0  0  0
   -2.3873   -0.3062   -1.4100 F   0  0  0  0  0  0  0  0  0  0  0  0
    2.0850   -1.4644   -0.7796 F   0  0  0  0  0  0  0  0  0  0  0  0
    0.7882   -1.6112    0.9739 F   0  0  0  0  0  0  0  0  0  0  0  0
   -2.8505    1.1070    0.8550 F   0  0  0  0  0  0  0  0  0  0  0  0
   -0.7653    0.9682    1.4203 F   0  0  0  0  0  0  0  0  0  0  0  0
   -1.3384    2.0124   -0.3960 F   0  0  0  0  0  0  0  0  0  0  0  0
    2.4115    0.2827    1.5362 O   0  0  0  0  0  0  0  0  0  0  0  0
    1.6441    1.5237   -0.1807 O   0  0  0  0  0  0  0  0  0  0  0  0
   -0.1224   -0.7323   -1.0173 C   0  0  0  0  0  0  0  0  0  0  0  0
   -1.5047   -0.3614   -0.3954 C   0  0  0  0  0  0  0  0  0  0  0  0
    1.1140   -0.8362   -0.0754 C   0  0  0  0  0  0  0  0  0  0  0  0
   -1.6148    0.9756    0.3817 C   0  0  0  0  0  0  0  0  0  0  0  0
    1.7330    0.4934    0.4106 C   0  0  0  0  0  0  0  0  0  0  0  0
    2.8235    1.1162    1.7972 H   0  0  0  0  0  0  0  0  0  0  0  0
  1 12  1  0
  2 12  1  0
  3 13  1  0
  4 13  1  0
  5 14  1  0
  6 14  1  0
  7 15  1  0
  8 15  1  0
  9 15  1  0
 10 16  1  0
 10 17  1  0
 11 16  2  0
 12 13  1  0
 12 14  1  0
 13 15  1  0
 14 16  1  0
M  END
$$$$
auto3d
     RDKit          3D

 17 16  0  0  0  0  0  0  0  0999 V2000
   -0.0745   -0.4239   -1.9112 F   0  0  0  0  0  0  0  0  0  0  0  0
   -0.0247   -2.3373   -0.8680 F   0  0  0  0  0  0  0  0  0  0  0  0
   -1.5083   -1.4763    1.1066 F   0  0  0  0  0  0  0  0  0  0  0  0
   -2.3959   -1.1025   -0.8542 F   0  0  0  0  0  0  0  0  0  0  0  0
    1.1869   -1.0837    1.2976 F   0  0  0  0  0  0  0  0  0  0  0  0
    2.2575   -1.2470   -0.6010 F   0  0  0  0  0  0  0  0  0  0  0  0
   -0.8128    1.1778    1.2812 F   0  0  0  0  0  0  0  0  0  0  0  0
   -1.7676    1.5514   -0.6337 F   0  0  0  0  0  0  0  0  0  0  0  0
   -2.9257    0.7831    1.0215 F   0  0  0  0  0  0  0  0  0  0  0  0
    2.4649    1.1264    1.0525 O   0  0  0  0  0  0  0  0  0  0  0  0
    1.2448    1.6749   -0.7603 O   0  0  0  0  0  0  0  0  0  0  0  0
   -0.0654   -1.0018   -0.7009 C   0  0  0  0  0  0  0  0  0  0  0  0
   -1.4303   -0.7171    0.0004 C   0  0  0  0  0  0  0  0  0  0  0  0
    1.2483   -0.6116    0.0399 C   0  0  0  0  0  0  0  0  0  0  0  0
   -1.7421    0.7435    0.4165 C   0  0  0  0  0  0  0  0  0  0  0  0
    1.6239    0.8873    0.0489 C   0  0  0  0  0  0  0  0  0  0  0  0
    2.7207    2.0569    1.0129 H   0  0  0  0  0  0  0  0  0  0  0  0
  1 12  1  0
  2 12  1  0
  3 13  1  0
  4 13  1  0
  5 14  1  0
  6 14  1  0
  7 15  1  0
  8 15  1  0
  9 15  1  0
 10 16  1  0
 10 17  1  0
 11 16  2  0
 12 13  1  0
 12 14  1  0
 13 15  1  0
 14 16  1  0
M  END
$$$$
auto3d
     RDKit          3D

 17 16  0  0  0  0  0  0  0  0999 V2000
   -1.1866   -1.9039    0.4579 F   0  0  0  0  0  0  0  0  0  0  0  0
    0.1095   -1.0836    2.0134 F   0  0  0  0  0  0  0  0  0  0  0  0
   -0.2261    1.4081    1.0834 F   0  0  0  0  0  0  0  0  0  0  0  0
   -2.0545    0.3440    1.6384 F   0  0  0  0  0  0  0  0  0  0  0  0
    0.5258   -1.0819   -1.4585 F   0  0  0  0  0  0  0  0  0  0  0  0
    1.4245   -2.3216    0.0924 F   0  0  0  0  0  0  0  0  0  0  0  0
   -2.5256   -0.0802   -1.1101 F   0  0  0  0  0  0  0  0  0  0  0  0
   -2.5206    1.9465   -0.3506 F   0  0  0  0  0  0  0  0  0  0  0  0
   -0.8552    1.2338   -1.5227 F   0  0  0  0  0  0  0  0  0  0  0  0
    1.9804    0.9296   -0.8080 O   0  0  0  0  0  0  0  0  0  0  0  0
    2.8236   -0.1664    0.9694 O   0  0  0  0  0  0  0  0  0  0  0  0
   -0.3160   -0.9231    0.7471 C   0  0  0  0  0  0  0  0  0  0  0  0
   -1.0825    0.4324    0.7156 C   0  0  0  0  0  0  0  0  0  0  0  0
    0.9244   -1.1036   -0.1741 C   0  0  0  0  0  0  0  0  0  0  0  0
   -1.7579    0.8858   -0.6130 C   0  0  0  0  0  0  0  0  0  0  0  0
    2.0377   -0.0599    0.0814 C   0  0  0  0  0  0  0  0  0  0  0  0
    2.6986    1.5442   -0.6097 H   0  0  0  0  0  0  0  0  0  0  0  0
  1 12  1  0
  2 12  1  0
  3 13  1  0
  4 13  1  0
  5 14  1  0
  6 14  1  0
  7 15  1  0
  8 15  1  0
  9 15  1  0
 10 16  1  0
 10 17  1  0
 11 16  2  0
 12 13  1  0
 12 14  1  0
 13 15  1  0
 14 16  1  0
M  END
$$$$
auto3d
     RDKit          3D

 17 16  0  0  0  0  0  0  0  0999 V2000
    0.1325    2.0316   -1.0582 F   0  0  0  0  0  0  0  0  0  0  0  0
   -0.9889    1.8160    0.8042 F   0  0  0  0  0  0  0  0  0  0  0  0
   -2.1538    0.7961   -1.3871 F   0  0  0  0  0  0  0  0  0  0  0  0
   -0.4278   -0.4899   -1.7747 F   0  0  0  0  0  0  0  0  0  0  0  0
    1.6668    1.7761    1.0707 F   0  0  0  0  0  0  0  0  0  0  0  0
    0.7150   -0.0951    1.6558 F   0  0  0  0  0  0  0  0  0  0  0  0
   -0.9061   -1.8925    0.4672 F   0  0  0  0  0  0  0  0  0  0  0  0
   -2.6937   -1.6541   -0.7173 F   0  0  0  0  0  0  0  0  0  0  0  0
   -2.4423   -0.5037    1.0986 F   0  0  0  0  0  0  0  0  0  0  0  0
    1.9058   -1.3823   -0.2183 O   0  0  0  0  0  0  0  0  0  0  0  0
    2.7790    0.5150   -1.0605 O   0  0  0  0  0  0  0  0  0  0  0  0
   -0.2458    1.1622   -0.1034 C   0  0  0  0  0  0  0  0  0  0  0  0
   -1.1534    0.1112   -0.8089 C   0  0  0  0  0  0  0  0  0  0  0  0
    1.0503    0.6765    0.6064 C   0  0  0  0  0  0  0  0  0  0  0  0
   -1.8087   -1.0140    0.0461 C   0  0  0  0  0  0  0  0  0  0  0  0
    2.0292   -0.0617   -0.3375 C   0  0  0  0  0  0  0  0  0  0  0  0
    2.5417   -1.7917   -0.8190 H   0  0  0  0  0  0  0  0  0  0  0  0
  1 12  1  0
  2 12  1  0
  3 13  1  0
  4 13  1  0
  5 14  1  0
  6 14  1  0
  7 15  1  0
  8 15  1  0
  9 15  1  0
 10 16  1  0
 10 17  1  0
 11 16  2  0
 12 13  1  0
 12 14  1  0
 13 15  1  0
 14 16  1  0
M  END
$$$$
auto3d
     RDKit          3D

 17 16  0  0  0  0  0  0  0  0999 V2000
    0.8621   -1.6423   -1.3206 F   0  0  0  0  0  0  0  0  0  0  0  0
   -0.3021   -2.1617    0.4535 F   0  0  0  0  0  0  0  0  0  0  0  0
    2.0669   -1.2074    1.0365 F   0  0  0  0  0  0  0  0  0  0  0  0
    0.4384    0.0966    1.6925 F   0  0  0  0  0  0  0  0  0  0  0  0
   -0.6773    0.5335   -1.7426 F   0  0  0  0  0  0  0  0  0  0  0  0
   -1.7780   -1.3395   -1.5705 F   0  0  0  0  0  0  0  0  0  0  0  0
    2.8018    1.2804    0.9072 F   0  0  0  0  0  0  0  0  0  0  0  0
    1.0574    1.9036   -0.1992 F   0  0  0  0  0  0  0  0  0  0  0  0
    2.4940    0.5661   -1.1126 F   0  0  0  0  0  0  0  0  0  0  0  0
   -1.7934    1.4793    0.3670 O   0  0  0  0  0  0  0  0  0  0  0  0
   -2.8267   -0.4785    0.7799 O   0  0  0  0  0  0  0  0  0  0  0  0
    0.1568   -1.1410   -0.2936 C   0  0  0  0  0  0  0  0  0  0  0  0
    1.1308   -0.3390    0.6196 C   0  0  0  0  0  0  0  0  0  0  0  0
   -1.0871   -0.4157   -0.8822 C   0  0  0  0  0  0  0  0  0  0  0  0
    1.8836    0.8883    0.0246 C   0  0  0  0  0  0  0  0  0  0  0  0
   -2.0217    0.1782    0.1984 C   0  0  0  0  0  0  0  0  0  0  0  0
   -2.4054    1.7995    1.0421 H   0  0  0  0  0  0  0  0  0  0  0  0
  1 12  1  0
  2 12  1  0
  3 13  1  0
  4 13  1  0
  5 14  1  0
  6 14  1  0
  7 15  1  0
  8 15  1  0
  9 15  1  0
 10 16  1  0
 10 17  1  0
 11 16  2  0
 12 13  1  0
 12 14  1  0
 13 15  1  0
 14 16  1  0
M  END
$$$$
auto3d
     RDKit          3D

 17 16  0  0  0  0  0  0  0  0999 V2000
    0.1079   -0.2077   -1.9822 F   0  0  0  0  0  0  0  0  0  0  0  0
    0.5758   -1.8560   -0.6141 F   0  0  0  0  0  0  0  0  0  0  0  0
   -2.0130   -1.5719   -1.2884 F   0  0  0  0  0  0  0  0  0  0  0  0
   -1.5589   -1.4193    0.8432 F   0  0  0  0  0  0  0  0  0  0  0  0
    0.6746    0.0684    1.4617 F   0  0  0  0  0  0  0  0  0  0  0  0
    0.5331    1.6045   -0.0890 F   0  0  0  0  0  0  0  0  0  0  0  0
   -2.0222    1.2149    0.8231 F   0  0  0  0  0  0  0  0  0  0  0  0
   -2.2001    1.2491   -1.3384 F   0  0  0  0  0  0  0  0  0  0  0  0
   -3.6240    0.1371   -0.1471 F   0  0  0  0  0  0  0  0  0  0  0  0
    3.1109    0.7546    0.8362 O   0  0  0  0  0  0  0  0  0  0  0  0
    2.8465   -0.2815   -1.1455 O   0  0  0  0  0  0  0  0  0  0  0  0
    0.0371   -0.6246   -0.7088 C   0  0  0  0  0  0  0  0  0  0  0  0
   -1.4705   -0.7871   -0.3382 C   0  0  0  0  0  0  0  0  0  0  0  0
    0.8953    0.3275    0.1610 C   0  0  0  0  0  0  0  0  0  0  0  0
   -2.3461    0.4954   -0.2497 C   0  0  0  0  0  0  0  0  0  0  0  0
    2.4073    0.2053   -0.1508 C   0  0  0  0  0  0  0  0  0  0  0  0
    4.0465    0.6913    0.6042 H   0  0  0  0  0  0  0  0  0  0  0  0
  1 12  1  0
  2 12  1  0
  3 13  1  0
  4 13  1  0
  5 14  1  0
  6 14  1  0
  7 15  1  0
  8 15  1  0
  9 15  1  0
 10 16  1  0
 10 17  1  0
 11 16  2  0
 12 13  1  0
 12 14  1  0
 13 15  1  0
 14 16  1  0
M  END
$$$$
auto3d
     RDKit          3D

 17 16  0  0  0  0  0  0  0  0999 V2000
    0.0033   -0.5608    1.6889 F   0  0  0  0  0  0  0  0  0  0  0  0
    0.6609   -1.8728    0.0600 F   0  0  0  0  0  0  0  0  0  0  0  0
   -1.9794   -1.8542    0.5772 F   0  0  0  0  0  0  0  0  0  0  0  0
   -1.3966   -1.2518   -1.4403 F   0  0  0  0  0  0  0  0  0  0  0  0
    0.4388    1.6161    0.2333 F   0  0  0  0  0  0  0  0  0  0  0  0
    0.7754    0.4359   -1.5773 F   0  0  0  0  0  0  0  0  0  0  0  0
   -2.3434    0.8859    1.1722 F   0  0  0  0  0  0  0  0  0  0  0  0
   -3.6144   -0.0276   -0.3223 F   0  0  0  0  0  0  0  0  0  0  0  0
   -2.0219    1.2990   -0.9327 F   0  0  0  0  0  0  0  0  0  0  0  0
    3.1190    1.0945   -0.6441 O   0  0  0  0  0  0  0  0  0  0  0  0
    2.7904   -0.3335    1.0657 O   0  0  0  0  0  0  0  0  0  0  0  0
    0.0419   -0.7133    0.3563 C   0  0  0  0  0  0  0  0  0  0  0  0
   -1.4252   -0.8685   -0.1537 C   0  0  0  0  0  0  0  0  0  0  0  0
    0.8946    0.4352   -0.2381 C   0  0  0  0  0  0  0  0  0  0  0  0
   -2.3706    0.3625   -0.0525 C   0  0  0  0  0  0  0  0  0  0  0  0
    2.3878    0.3238    0.1573 C   0  0  0  0  0  0  0  0  0  0  0  0
    4.0396    1.0296   -0.3589 H   0  0  0  0  0  0  0  0  0  0  0  0
  1 12  1  0
  2 12  1  0
  3 13  1  0
  4 13  1  0
  5 14  1  0
  6 14  1  0
  7 15  1  0
  8 15  1  0
  9 15  1  0
 10 16  1  0
 10 17  1  0
 11 16  2  0
 12 13  1  0
 12 14  1  0
 13 15  1  0
 14 16  1  0
M  END
$$$$
auto3d
     RDKit          3D

 17 16  0  0  0  0  0  0  0  0999 V2000
   -0.7993   -0.3374   -2.0604 F   0  0  0  0  0  0  0  0  0  0  0  0
    0.7686   -1.5827   -1.1978 F   0  0  0  0  0  0  0  0  0  0  0  0
   -0.1599   -1.1235    1.2939 F   0  0  0  0  0  0  0  0  0  0  0  0
   -1.5506   -2.0635   -0.1097 F   0  0  0  0  0  0  0  0  0  0  0  0
    1.6827    0.7590   -1.9109 F   0  0  0  0  0  0  0  0  0  0  0  0
    0.1025    1.8243   -0.8499 F   0  0  0  0  0  0  0  0  0  0  0  0
   -2.8165   -0.5114    1.5819 F   0  0  0  0  0  0  0  0  0  0  0  0
   -2.8371    0.4214   -0.3693 F   0  0  0  0  0  0  0  0  0  0  0  0
   -1.5367    1.1839    1.1871 F   0  0  0  0  0  0  0  0  0  0  0  0
    2.6493   -0.2229    0.4308 O   0  0  0  0  0  0  0  0  0  0  0  0
    1.6808    1.6281    1.2692 O   0  0  0  0  0  0  0  0  0  0  0  0
   -0.0289   -0.5228   -0.9754 C   0  0  0  0  0  0  0  0  0  0  0  0
   -0.9480   -0.9091    0.2185 C   0  0  0  0  0  0  0  0  0  0  0  0
    0.8804    0.7334   -0.8248 C   0  0  0  0  0  0  0  0  0  0  0  0
   -2.0628    0.0844    0.6587 C   0  0  0  0  0  0  0  0  0  0  0  0
    1.7725    0.7799    0.4397 C   0  0  0  0  0  0  0  0  0  0  0  0
    3.2032   -0.1409    1.2182 H   0  0  0  0  0  0  0  0  0  0  0  0
  1 12  1  0
  2 12  1  0
  3 13  1  0
  4 13  1  0
  5 14  1  0
  6 14  1  0
  7 15  1  0
  8 15  1  0
  9 15  1  0
 10 16  1  0
 10 17  1  0
 11 16  2  0
 12 13  1  0
 12 14  1  0
 13 15  1  0
 14 16  1  0
M  END
$$$$
auto3d
     RDKit          3D

 17 16  0  0  0  0  0  0  0  0999 V2000
    1.1386    1.3682   -1.3300 F   0  0  0  0  0  0  0  0  0  0  0  0
   -0.4172    0.2282   -2.3464 F   0  0  0  0  0  0  0  0  0  0  0  0
   -1.2386    2.2055   -0.6771 F   0  0  0  0  0  0  0  0  0  0  0  0
   -0.2194    1.2419    1.0023 F   0  0  0  0  0  0  0  0  0  0  0  0
    1.8601   -1.1124   -1.7022 F   0  0  0  0  0  0  0  0  0  0  0  0
    0.0123   -1.8986   -0.8508 F   0  0  0  0  0  0  0  0  0  0  0  0
   -1.8458   -0.8981    0.8167 F   0  0  0  0  0  0  0  0  0  0  0  0
   -2.9384    0.9643    0.8931 F   0  0  0  0  0  0  0  0  0  0  0  0
   -2.7829   -0.1164   -0.9738 F   0  0  0  0  0  0  0  0  0  0  0  0
    2.5497   -0.0292    0.6939 O   0  0  0  0  0  0  0  0  0  0  0  0
    1.2465   -1.6859    1.4839 O   0  0  0  0  0  0  0  0  0  0  0  0
    0.1909    0.4282   -1.1652 C   0  0  0  0  0  0  0  0  0  0  0  0
   -0.8484    1.0236   -0.1727 C   0  0  0  0  0  0  0  0  0  0  0  0
    0.9035   -0.9009   -0.7725 C   0  0  0  0  0  0  0  0  0  0  0  0
   -2.1371    0.2092    0.1428 C   0  0  0  0  0  0  0  0  0  0  0  0
    1.5698   -0.9290    0.6247 C   0  0  0  0  0  0  0  0  0  0  0  0
    2.9562   -0.0985    1.5677 H   0  0  0  0  0  0  0  0  0  0  0  0
  1 12  1  0
  2 12  1  0
  3 13  1  0
  4 13  1  0
  5 14  1  0
  6 14  1  0
  7 15  1  0
  8 15  1  0
  9 15  1  0
 10 16  1  0
 10 17  1  0
 11 16  2  0
 12 13  1  0
 12 14  1  0
 13 15  1  0
 14 16  1  0
M  END
$$$$
auto3d
     RDKit          3D

 17 16  0  0  0  0  0  0  0  0999 V2000
   -0.0772    1.5184    0.1201 F   0  0  0  0  0  0  0  0  0  0  0  0
    0.2135   -0.1993    1.4569 F   0  0  0  0  0  0  0  0  0  0  0  0
    1.3218    0.2495   -1.8445 F   0  0  0  0  0  0  0  0  0  0  0  0
    1.5877   -1.5012   -0.5543 F   0  0  0  0  0  0  0  0  0  0  0  0
   -1.3542   -0.1445   -1.6820 F   0  0  0  0  0  0  0  0  0  0  0  0
   -1.1153   -1.8079   -0.2825 F   0  0  0  0  0  0  0  0  0  0  0  0
    3.7390    0.0875   -0.7151 F   0  0  0  0  0  0  0  0  0  0  0  0
    2.6308    1.7981    0.0041 F   0  0  0  0  0  0  0  0  0  0  0  0
    2.9006    0.0653    1.2768 F   0  0  0  0  0  0  0  0  0  0  0  0
   -3.5553   -0.5178   -0.2069 O   0  0  0  0  0  0  0  0  0  0  0  0
   -2.4674    0.6758    1.3603 O   0  0  0  0  0  0  0  0  0  0  0  0
    0.0853    0.1854    0.1767 C   0  0  0  0  0  0  0  0  0  0  0  0
    1.4080   -0.1700   -0.5718 C   0  0  0  0  0  0  0  0  0  0  0  0
   -1.2097   -0.4676   -0.3834 C   0  0  0  0  0  0  0  0  0  0  0  0
    2.6992    0.4699    0.0262 C   0  0  0  0  0  0  0  0  0  0  0  0
   -2.4758   -0.0115    0.3869 C   0  0  0  0  0  0  0  0  0  0  0  0
   -4.3310   -0.2300    0.2916 H   0  0  0  0  0  0  0  0  0  0  0  0
  1 12  1  0
  2 12  1  0
  3 13  1  0
  4 13  1  0
  5 14  1  0
  6 14  1  0
  7 15  1  0
  8 15  1  0
  9 15  1  0
 10 16  1  0
 10 17  1  0
 11 16  2  0
 12 13  1  0
 12 14  1  0
 13 15  1  0
 14 16  1  0
M  END
$$$$
auto3d
     RDKit          3D

 17 16  0  0  0  0  0  0  0  0999 V2000
   -0.5454   -0.2652   -1.5870 F   0  0  0  0  0  0  0  0  0  0  0  0
   -0.9834   -1.9390   -0.2575 F   0  0  0  0  0  0  0  0  0  0  0  0
   -0.0829    1.2353    0.8934 F   0  0  0  0  0  0  0  0  0  0  0  0
   -1.1016   -0.4426    1.8563 F   0  0  0  0  0  0  0  0  0  0  0  0
    1.5095   -1.9836   -1.0866 F   0  0  0  0  0  0  0  0  0  0  0  0
    1.3878   -1.5467    1.0498 F   0  0  0  0  0  0  0  0  0  0  0  0
   -2.1592    1.7205   -0.6764 F   0  0  0  0  0  0  0  0  0  0  0  0
   -3.1548   -0.1202   -0.1125 F   0  0  0  0  0  0  0  0  0  0  0  0
   -2.8377    1.4391    1.3561 F   0  0  0  0  0  0  0  0  0  0  0  0
    2.8022    0.5081    0.6313 O   0  0  0  0  0  0  0  0  0  0  0  0
    2.1336    0.7227   -1.5060 O   0  0  0  0  0  0  0  0  0  0  0  0
   -0.3415   -0.7644   -0.3564 C   0  0  0  0  0  0  0  0  0  0  0  0
   -0.9424    0.2102    0.6972 C   0  0  0  0  0  0  0  0  0  0  0  0
    1.1804   -1.0435   -0.1785 C   0  0  0  0  0  0  0  0  0  0  0  0
   -2.3132    0.8279    0.2962 C   0  0  0  0  0  0  0  0  0  0  0  0
    2.0861    0.1846   -0.4437 C   0  0  0  0  0  0  0  0  0  0  0  0
    3.3621    1.2567    0.3892 H   0  0  0  0  0  0  0  0  0  0  0  0
  1 12  1  0
  2 12  1  0
  3 13  1  0
  4 13  1  0
  5 14  1  0
  6 14  1  0
  7 15  1  0
  8 15  1  0
  9 15  1  0
 10 16  1  0
 10 17  1  0
 11 16  2  0
 12 13  1  0
 12 14  1  0
 13 15  1  0
 14 16  1  0
M  END
$$$$
auto3d
     RDKit          3D

 17 16  0  0  0  0  0  0  0  0999 V2000
   -0.6222   -1.4553    1.3792 F   0  0  0  0  0  0  0  0  0  0  0  0
    0.0282    0.6243    1.4958 F   0  0  0  0  0  0  0  0  0  0  0  0
   -1.5491   -1.2008   -1.0304 F   0  0  0  0  0  0  0  0  0  0  0  0
   -0.4711    0.6661   -1.3945 F   0  0  0  0  0  0  0  0  0  0  0  0
    1.9970   -1.2396    1.2708 F   0  0  0  0  0  0  0  0  0  0  0  0
    1.1691   -1.9279   -0.6294 F   0  0  0  0  0  0  0  0  0  0  0  0
   -3.2364    0.7896   -0.9828 F   0  0  0  0  0  0  0  0  0  0  0  0
   -1.9968    1.9936    0.3151 F   0  0  0  0  0  0  0  0  0  0  0  0
   -2.9153    0.1817    1.0705 F   0  0  0  0  0  0  0  0  0  0  0  0
    2.4063   -0.0375   -1.7674 O   0  0  0  0  0  0  0  0  0  0  0  0
    2.4245    1.2618    0.0692 O   0  0  0  0  0  0  0  0  0  0  0  0
   -0.1103   -0.4322    0.6774 C   0  0  0  0  0  0  0  0  0  0  0  0
   -1.1103   -0.0713   -0.4588 C   0  0  0  0  0  0  0  0  0  0  0  0
    1.3011   -0.8632    0.1794 C   0  0  0  0  0  0  0  0  0  0  0  0
   -2.3477    0.7491    0.0075 C   0  0  0  0  0  0  0  0  0  0  0  0
    2.1046    0.2688   -0.5072 C   0  0  0  0  0  0  0  0  0  0  0  0
    2.9283    0.6927   -2.1238 H   0  0  0  0  0  0  0  0  0  0  0  0
  1 12  1  0
  2 12  1  0
  3 13  1  0
  4 13  1  0
  5 14  1  0
  6 14  1  0
  7 15  1  0
  8 15  1  0
  9 15  1  0
 10 16  1  0
 10 17  1  0
 11 16  2  0
 12 13  1  0
 12 14  1  0
 13 15  1  0
 14 16  1  0
M  END
$$$$
auto3d
     RDKit          3D

 17 16  0  0  0  0  0  0  0  0999 V2000
   -0.5972   -1.6831   -0.7984 F   0  0  0  0  0  0  0  0  0  0  0  0
   -0.1090   -1.0963    1.2505 F   0  0  0  0  0  0  0  0  0  0  0  0
    2.0048   -1.8094   -0.1163 F   0  0  0  0  0  0  0  0  0  0  0  0
    1.5185   -0.4855   -1.7852 F   0  0  0  0  0  0  0  0  0  0  0  0
   -0.5680    1.4628    0.7306 F   0  0  0  0  0  0  0  0  0  0  0  0
   -0.7283    1.0848   -1.4159 F   0  0  0  0  0  0  0  0  0  0  0  0
    1.9704    1.6843   -0.2825 F   0  0  0  0  0  0  0  0  0  0  0  0
    3.5962    0.2708   -0.1139 F   0  0  0  0  0  0  0  0  0  0  0  0
    2.1889    0.4919    1.5156 F   0  0  0  0  0  0  0  0  0  0  0  0
   -2.7735    0.1768    1.2416 O   0  0  0  0  0  0  0  0  0  0  0  0
   -3.1492    0.0245   -0.9757 O   0  0  0  0  0  0  0  0  0  0  0  0
   -0.0504   -0.7151   -0.0370 C   0  0  0  0  0  0  0  0  0  0  0  0
    1.4507   -0.6292   -0.4528 C   0  0  0  0  0  0  0  0  0  0  0  0
   -0.9281    0.5595   -0.1994 C   0  0  0  0  0  0  0  0  0  0  0  0
    2.3190    0.4897    0.1899 C   0  0  0  0  0  0  0  0  0  0  0  0
   -2.4323    0.2184   -0.0453 C   0  0  0  0  0  0  0  0  0  0  0  0
   -3.7126   -0.0446    1.2942 H   0  0  0  0  0  0  0  0  0  0  0  0
  1 12  1  0
  2 12  1  0
  3 13  1  0
  4 13  1  0
  5 14  1  0
  6 14  1  0
  7 15  1  0
  8 15  1  0
  9 15  1  0
 10 16  1  0
 10 17  1  0
 11 16  2  0
 12 13  1  0
 12 14  1  0
 13 15  1  0
 14 16  1  0
M  END
$$$$
auto3d
     RDKit          3D

 17 16  0  0  0  0  0  0  0  0999 V2000
    0.3628    1.4490   -0.7452 F   0  0  0  0  0  0  0  0  0  0  0  0
    0.6946    1.1699    1.3978 F   0  0  0  0  0  0  0  0  0  0  0  0
   -1.6361    0.0131    1.7402 F   0  0  0  0  0  0  0  0  0  0  0  0
   -1.7896    1.9106    0.6679 F   0  0  0  0  0  0  0  0  0  0  0  0
    0.4878   -1.1522   -1.2082 F   0  0  0  0  0  0  0  0  0  0  0  0
    0.4297   -1.6257    0.9246 F   0  0  0  0  0  0  0  0  0  0  0  0
   -2.1625   -1.3668   -0.4970 F   0  0  0  0  0  0  0  0  0  0  0  0
   -2.0601    0.4226   -1.7172 F   0  0  0  0  0  0  0  0  0  0  0  0
   -3.5962    0.2236   -0.2054 F   0  0  0  0  0  0  0  0  0  0  0  0
    2.8647   -0.0828   -1.0214 O   0  0  0  0  0  0  0  0  0  0  0  0
    2.9913   -0.8749    1.0849 O   0  0  0  0  0  0  0  0  0  0  0  0
    0.1256    0.6366    0.2984 C   0  0  0  0  0  0  0  0  0  0  0  0
   -1.4111    0.6224    0.5661 C   0  0  0  0  0  0  0  0  0  0  0  0
    0.8313   -0.7225    0.0199 C   0  0  0  0  0  0  0  0  0  0  0  0
   -2.3263   -0.0459   -0.4990 C   0  0  0  0  0  0  0  0  0  0  0  0
    2.3717   -0.5770    0.1131 C   0  0  0  0  0  0  0  0  0  0  0  0
    3.8221    0.0000   -0.9194 H   0  0  0  0  0  0  0  0  0  0  0  0
  1 12  1  0
  2 12  1  0
  3 13  1  0
  4 13  1  0
  5 14  1  0
  6 14  1  0
  7 15  1  0
  8 15  1  0
  9 15  1  0
 10 16  1  0
 10 17  1  0
 11 16  2  0
 12 13  1  0
 12 14  1  0
 13 15  1  0
 14 16  1  0
M  END
$$$$
auto3d
     RDKit          3D

 17 16  0  0  0  0  0  0  0  0999 V2000
    0.8248   -1.5612    1.3016 F   0  0  0  0  0  0  0  0  0  0  0  0
    0.6991   -1.3760   -0.8754 F   0  0  0  0  0  0  0  0  0  0  0  0
    0.3410    1.1907    1.4955 F   0  0  0  0  0  0  0  0  0  0  0  0
    0.3513    1.2906   -0.6917 F   0  0  0  0  0  0  0  0  0  0  0  0
   -1.6710   -0.6804    1.6003 F   0  0  0  0  0  0  0  0  0  0  0  0
   -1.4988   -2.3329    0.1895 F   0  0  0  0  0  0  0  0  0  0  0  0
    2.8942    0.2292    1.4698 F   0  0  0  0  0  0  0  0  0  0  0  0
    2.6399    2.0897    0.3992 F   0  0  0  0  0  0  0  0  0  0  0  0
    2.9103    0.2457   -0.6965 F   0  0  0  0  0  0  0  0  0  0  0  0
   -2.5252    0.8995   -0.2224 O   0  0  0  0  0  0  0  0  0  0  0  0
   -2.1463   -0.6282   -1.8321 O   0  0  0  0  0  0  0  0  0  0  0  0
    0.2948   -0.8503    0.2928 C   0  0  0  0  0  0  0  0  0  0  0  0
    0.8130    0.6141    0.3798 C   0  0  0  0  0  0  0  0  0  0  0  0
   -1.2544   -1.0230    0.3708 C   0  0  0  0  0  0  0  0  0  0  0  0
    2.3616    0.7867    0.3870 C   0  0  0  0  0  0  0  0  0  0  0  0
   -2.0276   -0.2353   -0.7142 C   0  0  0  0  0  0  0  0  0  0  0  0
   -3.0067    1.3410   -0.9338 H   0  0  0  0  0  0  0  0  0  0  0  0
  1 12  1  0
  2 12  1  0
  3 13  1  0
  4 13  1  0
  5 14  1  0
  6 14  1  0
  7 15  1  0
  8 15  1  0
  9 15  1  0
 10 16  1  0
 10 17  1  0
 11 16  2  0
 12 13  1  0
 12 14  1  0
 13 15  1  0
 14 16  1  0
M  END
$$$$
auto3d
     RDKit          3D

 17 16  0  0  0  0  0  0  0  0999 V2000
    0.6794   -1.8279   -0.8501 F   0  0  0  0  0  0  0  0  0  0  0  0
    0.2080   -1.3429    1.2311 F   0  0  0  0  0  0  0  0  0  0  0  0
    0.4674    1.2915    0.7475 F   0  0  0  0  0  0  0  0  0  0  0  0
    0.8152    0.9235   -1.3826 F   0  0  0  0  0  0  0  0  0  0  0  0
   -1.9148   -2.0009   -0.1623 F   0  0  0  0  0  0  0  0  0  0  0  0
   -1.4837   -0.5414   -1.7227 F   0  0  0  0  0  0  0  0  0  0  0  0
    3.0250    1.5031    0.0647 F   0  0  0  0  0  0  0  0  0  0  0  0
    2.7131   -0.2166    1.3374 F   0  0  0  0  0  0  0  0  0  0  0  0
    3.0685   -0.4850   -0.7827 F   0  0  0  0  0  0  0  0  0  0  0  0
   -2.2962    1.3939   -0.2579 O   0  0  0  0  0  0  0  0  0  0  0  0
   -2.5457    0.0406    1.5239 O   0  0  0  0  0  0  0  0  0  0  0  0
    0.1375   -0.9062   -0.0372 C   0  0  0  0  0  0  0  0  0  0  0  0
    0.9564    0.4119   -0.1503 C   0  0  0  0  0  0  0  0  0  0  0  0
   -1.3742   -0.7945   -0.4087 C   0  0  0  0  0  0  0  0  0  0  0  0
    2.4844    0.2869    0.1283 C   0  0  0  0  0  0  0  0  0  0  0  0
   -2.1468    0.2575    0.4228 C   0  0  0  0  0  0  0  0  0  0  0  0
   -2.7935    2.0064    0.2993 H   0  0  0  0  0  0  0  0  0  0  0  0
  1 12  1  0
  2 12  1  0
  3 13  1  0
  4 13  1  0
  5 14  1  0
  6 14  1  0
  7 15  1  0
  8 15  1  0
  9 15  1  0
 10 16  1  0
 10 17  1  0
 11 16  2  0
 12 13  1  0
 12 14  1  0
 13 15  1  0
 14 16  1  0
M  END
$$$$
auto3d
     RDKit          3D

 17 16  0  0  0  0  0  0  0  0999 V2000
    0.2662   -0.0252   -1.8635 F   0  0  0  0  0  0  0  0  0  0  0  0
    0.0570    1.6867   -0.5199 F   0  0  0  0  0  0  0  0  0  0  0  0
   -2.2529    0.7265   -1.2976 F   0  0  0  0  0  0  0  0  0  0  0  0
   -1.7186   -1.3185   -0.7413 F   0  0  0  0  0  0  0  0  0  0  0  0
    0.7669   -1.6013    0.4557 F   0  0  0  0  0  0  0  0  0  0  0  0
    0.8371    0.2763    1.5715 F   0  0  0  0  0  0  0  0  0  0  0  0
   -1.9604    1.4295    1.4237 F   0  0  0  0  0  0  0  0  0  0  0  0
   -3.5127    0.0195    0.8876 F   0  0  0  0  0  0  0  0  0  0  0  0
   -1.7135   -0.6808    1.8585 F   0  0  0  0  0  0  0  0  0  0  0  0
    2.8555   -0.9805   -0.9205 O   0  0  0  0  0  0  0  0  0  0  0  0
    3.0315    0.9802    0.1780 O   0  0  0  0  0  0  0  0  0  0  0  0
   -0.0590    0.3525   -0.6098 C   0  0  0  0  0  0  0  0  0  0  0  0
   -1.5604   -0.0242   -0.4206 C   0  0  0  0  0  0  0  0  0  0  0  0
    0.9827   -0.2783    0.3585 C   0  0  0  0  0  0  0  0  0  0  0  0
   -2.1968    0.1960    0.9812 C   0  0  0  0  0  0  0  0  0  0  0  0
    2.4262    0.0023   -0.1320 C   0  0  0  0  0  0  0  0  0  0  0  0
    3.7509   -0.7609   -1.2095 H   0  0  0  0  0  0  0  0  0  0  0  0
  1 12  1  0
  2 12  1  0
  3 13  1  0
  4 13  1  0
  5 14  1  0
  6 14  1  0
  7 15  1  0
  8 15  1  0
  9 15  1  0
 10 16  1  0
 10 17  1  0
 11 16  2  0
 12 13  1  0
 12 14  1  0
 13 15  1  0
 14 16  1  0
M  END
$$$$
auto3d
     RDKit          3D

 17 16  0  0  0  0  0  0  0  0999 V2000
    0.1396    0.3137   -2.0369 F   0  0  0  0  0  0  0  0  0  0  0  0
    0.9572    1.6112   -0.4788 F   0  0  0  0  0  0  0  0  0  0  0  0
   -1.2156    1.4543    0.9789 F   0  0  0  0  0  0  0  0  0  0  0  0
   -1.6313    1.9994   -1.0964 F   0  0  0  0  0  0  0  0  0  0  0  0
    0.6352   -0.5824    1.3123 F   0  0  0  0  0  0  0  0  0  0  0  0
    0.1574   -1.7908   -0.4445 F   0  0  0  0  0  0  0  0  0  0  0  0
   -2.2424   -0.9912    0.6114 F   0  0  0  0  0  0  0  0  0  0  0  0
   -2.4455   -0.6718   -1.5240 F   0  0  0  0  0  0  0  0  0  0  0  0
   -3.5788    0.5364   -0.1307 F   0  0  0  0  0  0  0  0  0  0  0  0
    3.0464   -0.1732    0.5027 O   0  0  0  0  0  0  0  0  0  0  0  0
    2.6677   -1.4092   -1.3442 O   0  0  0  0  0  0  0  0  0  0  0  0
    0.1546    0.5530   -0.7163 C   0  0  0  0  0  0  0  0  0  0  0  0
   -1.2772    0.9897   -0.2794 C   0  0  0  0  0  0  0  0  0  0  0  0
    0.7878   -0.6855   -0.0190 C   0  0  0  0  0  0  0  0  0  0  0  0
   -2.4126   -0.0715   -0.3358 C   0  0  0  0  0  0  0  0  0  0  0  0
    2.2886   -0.8124   -0.3857 C   0  0  0  0  0  0  0  0  0  0  0  0
    3.9688   -0.2697    0.2317 H   0  0  0  0  0  0  0  0  0  0  0  0
  1 12  1  0
  2 12  1  0
  3 13  1  0
  4 13  1  0
  5 14  1  0
  6 14  1  0
  7 15  1  0
  8 15  1  0
  9 15  1  0
 10 16  1  0
 10 17  1  0
 11 16  2  0
 12 13  1  0
 12 14  1  0
 13 15  1  0
 14 16  1  0
M  END
$$$$
auto3d
     RDKit          3D

 17 16  0  0  0  0  0  0  0  0999 V2000
   -0.7365   -0.3336    1.8784 F   0  0  0  0  0  0  0  0  0  0  0  0
    0.3410    1.3353    0.9670 F   0  0  0  0  0  0  0  0  0  0  0  0
   -1.3611   -1.2377   -0.7086 F   0  0  0  0  0  0  0  0  0  0  0  0
   -0.3691    0.5481   -1.4985 F   0  0  0  0  0  0  0  0  0  0  0  0
    0.8057   -2.1159    0.7374 F   0  0  0  0  0  0  0  0  0  0  0  0
    1.9856   -0.5585    1.7060 F   0  0  0  0  0  0  0  0  0  0  0  0
   -2.0964    2.1255   -0.0369 F   0  0  0  0  0  0  0  0  0  0  0  0
   -3.1076    0.3458    0.6732 F   0  0  0  0  0  0  0  0  0  0  0  0
   -3.0191    0.7686   -1.4450 F   0  0  0  0  0  0  0  0  0  0  0  0
    2.6122    0.5379   -0.6636 O   0  0  0  0  0  0  0  0  0  0  0  0
    2.0730   -1.4804   -1.5035 O   0  0  0  0  0  0  0  0  0  0  0  0
   -0.0709    0.0697    0.7843 C   0  0  0  0  0  0  0  0  0  0  0  0
   -1.0280    0.0333   -0.4396 C   0  0  0  0  0  0  0  0  0  0  0  0
    1.1935   -0.8382    0.6493 C   0  0  0  0  0  0  0  0  0  0  0  0
   -2.3485    0.8454   -0.2968 C   0  0  0  0  0  0  0  0  0  0  0  0
    2.0065   -0.6496   -0.6536 C   0  0  0  0  0  0  0  0  0  0  0  0
    3.1199    0.6043   -1.4829 H   0  0  0  0  0  0  0  0  0  0  0  0
  1 12  1  0
  2 12  1  0
  3 13  1  0
  4 13  1  0
  5 14  1  0
  6 14  1  0
  7 15  1  0
  8 15  1  0
  9 15  1  0
 10 16  1  0
 10 17  1  0
 11 16  2  0
 12 13  1  0
 12 14  1  0
 13 15  1  0
 14 16  1  0
M  END
$$$$
auto3d
     RDKit          3D

 17 16  0  0  0  0  0  0  0  0999 V2000
    0.5686   -1.9600    0.5632 F   0  0  0  0  0  0  0  0  0  0  0  0
    0.0996   -0.1654    1.7191 F   0  0  0  0  0  0  0  0  0  0  0  0
    0.8919   -0.3207   -1.6974 F   0  0  0  0  0  0  0  0  0  0  0  0
    0.5418    1.4129   -0.4054 F   0  0  0  0  0  0  0  0  0  0  0  0
   -1.4563   -1.5979   -1.0569 F   0  0  0  0  0  0  0  0  0  0  0  0
   -2.0776   -1.4376    1.0275 F   0  0  0  0  0  0  0  0  0  0  0  0
    2.6725    0.6409    1.1676 F   0  0  0  0  0  0  0  0  0  0  0  0
    3.1190    1.0020   -0.9171 F   0  0  0  0  0  0  0  0  0  0  0  0
    3.0437   -1.0244   -0.1677 F   0  0  0  0  0  0  0  0  0  0  0  0
   -2.2909    1.2317    0.8315 O   0  0  0  0  0  0  0  0  0  0  0  0
   -2.4259    0.8486   -1.3832 O   0  0  0  0  0  0  0  0  0  0  0  0
    0.0809   -0.7111    0.4918 C   0  0  0  0  0  0  0  0  0  0  0  0
    0.9869    0.1397   -0.4413 C   0  0  0  0  0  0  0  0  0  0  0  0
   -1.4081   -0.8202    0.0311 C   0  0  0  0  0  0  0  0  0  0  0  0
    2.4980    0.1836   -0.0694 C   0  0  0  0  0  0  0  0  0  0  0  0
   -2.1026    0.5261   -0.2838 C   0  0  0  0  0  0  0  0  0  0  0  0
   -2.7413    2.0517    0.5905 H   0  0  0  0  0  0  0  0  0  0  0  0
  1 12  1  0
  2 12  1  0
  3 13  1  0
  4 13  1  0
  5 14  1  0
  6 14  1  0
  7 15  1  0
  8 15  1  0
  9 15  1  0
 10 16  1  0
 10 17  1  0
 11 16  2  0
 12 13  1  0
 12 14  1  0
 13 15  1  0
 14 16  1  0
M  END
$$$$
auto3d
     RDKit          3D

 17 16  0  0  0  0  0  0  0  0999 V2000
   -0.0171    0.6935    1.2619 F   0  0  0  0  0  0  0  0  0  0  0  0
   -0.0590    1.1904   -0.8700 F   0  0  0  0  0  0  0  0  0  0  0  0
    1.5192   -1.4850    0.7700 F   0  0  0  0  0  0  0  0  0  0  0  0
    1.4247   -1.1091   -1.3868 F   0  0  0  0  0  0  0  0  0  0  0  0
   -1.2974   -1.1789   -1.4116 F   0  0  0  0  0  0  0  0  0  0  0  0
   -1.2122   -1.7225    0.7034 F   0  0  0  0  0  0  0  0  0  0  0  0
    3.7333   -0.3722   -0.2014 F   0  0  0  0  0  0  0  0  0  0  0  0
    2.6455    1.3030   -1.0273 F   0  0  0  0  0  0  0  0  0  0  0  0
    2.6973    0.9932    1.1160 F   0  0  0  0  0  0  0  0  0  0  0  0
   -2.9570    0.7493   -0.9677 O   0  0  0  0  0  0  0  0  0  0  0  0
   -3.0157    0.2058    1.2178 O   0  0  0  0  0  0  0  0  0  0  0  0
    0.0223    0.1836    0.0195 C   0  0  0  0  0  0  0  0  0  0  0  0
    1.3910   -0.5379   -0.1720 C   0  0  0  0  0  0  0  0  0  0  0  0
   -1.2523   -0.6978   -0.1588 C   0  0  0  0  0  0  0  0  0  0  0  0
    2.6453    0.3845   -0.0656 C   0  0  0  0  0  0  0  0  0  0  0  0
   -2.5239    0.1406    0.1353 C   0  0  0  0  0  0  0  0  0  0  0  0
   -3.7441    1.2594   -0.7352 H   0  0  0  0  0  0  0  0  0  0  0  0
  1 12  1  0
  2 12  1  0
  3 13  1  0
  4 13  1  0
  5 14  1  0
  6 14  1  0
  7 15  1  0
  8 15  1  0
  9 15  1  0
 10 16  1  0
 10 17  1  0
 11 16  2  0
 12 13  1  0
 12 14  1  0
 13 15  1  0
 14 16  1  0
M  END
$$$$
auto3d
     RDKit          3D

 17 16  0  0  0  0  0  0  0  0999 V2000
    0.1032   -0.7712   -1.1438 F   0  0  0  0  0  0  0  0  0  0  0  0
    0.0188    1.2926   -0.4173 F   0  0  0  0  0  0  0  0  0  0  0  0
    1.3853   -1.5387    1.1533 F   0  0  0  0  0  0  0  0  0  0  0  0
    1.2825    0.5176    1.9042 F   0  0  0  0  0  0  0  0  0  0  0  0
   -1.4471    0.4717    1.7459 F   0  0  0  0  0  0  0  0  0  0  0  0
   -1.3439   -1.5920    1.0342 F   0  0  0  0  0  0  0  0  0  0  0  0
    3.6752   -0.1752    0.9118 F   0  0  0  0  0  0  0  0  0  0  0  0
    2.7297    1.3699   -0.2673 F   0  0  0  0  0  0  0  0  0  0  0  0
    2.8249   -0.6608   -1.0153 F   0  0  0  0  0  0  0  0  0  0  0  0
   -2.9100    1.2049   -0.2496 O   0  0  0  0  0  0  0  0  0  0  0  0
   -2.9261   -0.9077   -1.0320 O   0  0  0  0  0  0  0  0  0  0  0  0
    0.0436   -0.0006   -0.0449 C   0  0  0  0  0  0  0  0  0  0  0  0
    1.3308   -0.2450    0.8002 C   0  0  0  0  0  0  0  0  0  0  0  0
   -1.3143   -0.3062    0.6594 C   0  0  0  0  0  0  0  0  0  0  0  0
    2.6724    0.0858    0.0746 C   0  0  0  0  0  0  0  0  0  0  0  0
   -2.4889   -0.0567   -0.3228 C   0  0  0  0  0  0  0  0  0  0  0  0
   -3.6361    1.3117   -0.8783 H   0  0  0  0  0  0  0  0  0  0  0  0
  1 12  1  0
  2 12  1  0
  3 13  1  0
  4 13  1  0
  5 14  1  0
  6 14  1  0
  7 15  1  0
  8 15  1  0
  9 15  1  0
 10 16  1  0
 10 17  1  0
 11 16  2  0
 12 13  1  0
 12 14  1  0
 13 15  1  0
 14 16  1  0
M  END
$$$$
