  17

 F         -0.5904000000       -1.6716000000       -0.8535000000
 F         -0.1368000000       -1.1300000000        1.2118000000
 F          2.0049000000       -1.8123000000       -0.1473000000
 F          1.5352000000       -0.4444000000       -1.7890000000
 F         -0.5454000000        1.4643000000        0.7028000000
 F         -0.7411000000        1.0746000000       -1.4374000000
 F          1.9532000000        1.6850000000       -0.2457000000
 F          3.5885000000        0.2827000000       -0.0773000000
 F          2.1579000000        0.4646000000        1.5377000000
 O         -2.7713000000        0.2942000000        1.2519000000
 O         -3.1167000000       -0.1386000000       -0.9351000000
 C         -0.0531000000       -0.7228000000       -0.0666000000
 C          1.4528000000       -0.6250000000       -0.4608000000
 C         -0.9243000000        0.5574000000       -0.2147000000
 C          2.3063000000        0.4864000000        0.2136000000
 C         -2.4195000000        0.1913000000       -0.0287000000
 H         -3.7003000000        0.0442000000        1.3384000000
