
     RDKit          3D

 17 16  0  0  0  0  0  0  0  0999 V2000
   -0.5904   -1.6716   -0.8535 F   0  0  0  0  0  0  0  0  0  0  0  0
   -0.1368   -1.1300    1.2118 F   0  0  0  0  0  0  0  0  0  0  0  0
    2.0049   -1.8123   -0.1473 F   0  0  0  0  0  0  0  0  0  0  0  0
    1.5352   -0.4444   -1.7890 F   0  0  0  0  0  0  0  0  0  0  0  0
   -0.5454    1.4643    0.7028 F   0  0  0  0  0  0  0  0  0  0  0  0
   -0.7411    1.0746   -1.4374 F   0  0  0  0  0  0  0  0  0  0  0  0
    1.9532    1.6850   -0.2457 F   0  0  0  0  0  0  0  0  0  0  0  0
    3.5885    0.2827   -0.0773 F   0  0  0  0  0  0  0  0  0  0  0  0
    2.1579    0.4646    1.5377 F   0  0  0  0  0  0  0  0  0  0  0  0
   -2.7713    0.2942    1.2519 O   0  0  0  0  0  0  0  0  0  0  0  0
   -3.1167   -0.1386   -0.9351 O   0  0  0  0  0  0  0  0  0  0  0  0
   -0.0531   -0.7228   -0.0666 C   0  0  0  0  0  0  0  0  0  0  0  0
    1.4528   -0.6250   -0.4608 C   0  0  0  0  0  0  0  0  0  0  0  0
   -0.9243    0.5574   -0.2147 C   0  0  0  0  0  0  0  0  0  0  0  0
    2.3063    0.4864    0.2136 C   0  0  0  0  0  0  0  0  0  0  0  0
   -2.4195    0.1913   -0.0287 C   0  0  0  0  0  0  0  0  0  0  0  0
   -3.7003    0.0442    1.3384 H   0  0  0  0  0  0  0  0  0  0  0  0
  1 12  1  0
  2 12  1  0
  3 13  1  0
  4 13  1  0
  5 14  1  0
  6 14  1  0
  7 15  1  0
  8 15  1  0
  9 15  1  0
 10 16  1  0
 10 17  1  0
 11 16  2  0
 12 13  1  0
 12 14  1  0
 13 15  1  0
 14 16  1  0
M  END
$$$$
