     16

F      -0.5818691588   -2.0361710657    0.0760866043
F      -0.3526945079   -0.3805457343    1.4383249997
F       1.8372883095   -1.6194289512   -0.3636522177
F       1.1010510599   -0.0835655748   -1.6926387757
F      -1.0022594816    1.2895640440   -0.9388117190
F      -1.6603902896   -0.5846497447   -1.8007529844
F       3.0162844158    0.9710823085   -0.2231345358
F       2.2851432445    0.0852741043    1.5977315288
F       1.1805321892    1.6767309835    0.6519675955
O      -2.6504975156    1.1963788210    0.9770555978
O      -3.5819537770   -0.7148265370    0.2260037248
C      -0.3107536501   -0.7290928658    0.1366317789
C       1.1410785601   -0.4762154081   -0.4138728960
C      -1.4292368974    0.0497941788   -0.6440370445
C       1.9245103820    0.5992103159    0.4283765959
C      -2.7271962954    0.1098238302    0.2400058920
