  16

 F         -0.5746767446       -1.9979946357        0.1018169363
 F         -0.2759999744       -0.3371186209        1.4482077993
 F          1.8304275762       -1.6426436661       -0.3629345096
 F          1.1491033451       -0.1021529967       -1.7092423250
 F         -0.9319564862        1.3745005924       -0.8193472192
 F         -1.5700537208       -0.4495008119       -1.8319753536
 F          3.1129138720        0.8453568136       -0.2778804864
 F          2.3580481700        0.0407022500        1.5634312230
 F          1.3600244314        1.6989720872        0.6192038316
 O         -3.1702658438        1.2382121349        0.7836170538
 O         -3.4723723217       -0.9657798370        0.3123637904
 C         -0.3249630340       -0.6784056171        0.1362831346
 C          1.1444736360       -0.4771681881       -0.4222005868
 C         -1.4272887050        0.1143143081       -0.5912008376
 C          1.9866844751        0.5569418386        0.3910448511
 C         -3.0050620877        0.1351270535        0.3540968428
